<net xmlns:xsi="http://www.w3.org/2001/XMLSchema-instance" version="1.16" junctionCornerDetail="5" limitTurnSpeed="5.50" xsi:noNamespaceSchemaLocation="http://sumo.dlr.de/xsd/net_file.xsd">

    <location netOffset="0.00,0.00" convBoundary="-1.72,73.48,54.28,73.84" origBoundary="10000000000.00,10000000000.00,-10000000000.00,-10000000000.00" projParameter="!" />

    <edge id="100" function="internal" lanes="[{'id': '100_0', 'index': '0', 'speed': '13.89', 'length': '0.31', 'shape': '27.44,75.44 27.14,75.44'}]"><lane id="100_0" index="0" speed="13.89" length="0.31" shape="27.44,75.44 27.14,75.44" /></edge><edge id="200" function="internal" lanes="[{'id': '200_0', 'index': '0', 'speed': '13.89', 'length': '0.23', 'shape': '27.17,72.24 27.40,72.24'}]"><lane id="200_0" index="0" speed="13.89" length="0.23" shape="27.17,72.24 27.40,72.24" /></edge><edge id="300" from="J6" to="J5" priority="-1" lanes="[{'id': '300_0', 'index': '0', 'speed': '13.89', 'length': '28.88', 'shape': '27.14,75.44 -1.74,75.08'}]"><lane id="300_0" index="0" speed="13.89" length="28.88" shape="27.14,75.44 -1.74,75.08" /></edge><edge id="400" from="J6" to="J7" priority="-1" lanes="[{'id': '400_0', 'index': '0', 'speed': '13.89', 'length': '26.86', 'shape': '27.40,72.24 54.26,71.88'}]"><lane id="400_0" index="0" speed="13.89" length="26.86" shape="27.40,72.24 54.26,71.88" /></edge><edge id="500" from="J5" to="J6" priority="-1" lanes="[{'id': '500_0', 'index': '0', 'speed': '13.89', 'length': '28.88', 'shape': '-1.70,71.88 27.17,72.24'}]"><lane id="500_0" index="0" speed="13.89" length="28.88" shape="-1.70,71.88 27.17,72.24" /></edge><edge id="600" from="J7" to="J6" priority="-1" lanes="[{'id': '600_0', 'index': '0', 'speed': '13.89', 'length': '26.86', 'shape': '54.30,75.08 27.44,75.44'}]"><lane id="600_0" index="0" speed="13.89" length="26.86" shape="54.30,75.08 27.44,75.44" /></edge><junction id="J6" type="priority" x="27.29" y="73.84" incLanes="600_0 500_0" intLanes="100_0 200_0" shape="27.46,77.04 27.38,70.64 27.19,70.64 27.12,77.04"><request index="0" response="00" foes="00" cont="0" /><request index="1" response="00" foes="00" cont="0" /></junction><junction id="J5" type="dead_end" x="-1.72" y="73.48" incLanes="300_0" intLanes="" shape="-1.72,73.48 -1.76,76.68 -1.72,73.48" /><junction id="J7" type="dead_end" x="54.28" y="73.48" incLanes="400_0" intLanes="" shape="54.28,73.48 54.24,70.28 54.28,73.48" /><connection from="500" to="400" fromLane="0" toLane="0" via="200_0" dir="s" state="M" /><connection from="600" to="300" fromLane="0" toLane="0" via="100_0" dir="s" state="M" /><connection from="100" to="300" fromLane="0" toLane="0" dir="s" state="M" /><connection from="200" to="400" fromLane="0" toLane="0" dir="s" state="M" /></net>
