<net xmlns:xsi="http://www.w3.org/2001/XMLSchema-instance" version="1.16" junctionCornerDetail="5" limitTurnSpeed="5.50" xsi:noNamespaceSchemaLocation="http://sumo.dlr.de/xsd/net_file.xsd">

    <location netOffset="-241678.04,-3377229.33" convBoundary="0.00,0.00,1465.01,1731.96" origBoundary="114.308337,30.499749,114.323617,30.515346" projParameter="+proj=utm +zone=50 +ellps=WGS84 +datum=WGS84 +units=m +no_defs" />

    <type id="highway.bridleway" priority="1" numLanes="1" speed="2.78" allow="pedestrian" oneway="1" width="2.00" />
    <type id="highway.bus_guideway" priority="1" numLanes="1" speed="27.78" allow="bus" oneway="1" />
    <type id="highway.cycleway" priority="1" numLanes="1" speed="5.56" allow="bicycle" oneway="0" width="1.00" />
    <type id="highway.footway" priority="1" numLanes="1" speed="2.78" allow="pedestrian" oneway="1" width="2.00" />
    <type id="highway.ford" priority="1" numLanes="1" speed="2.78" allow="army" oneway="0" />
    <type id="highway.living_street" priority="2" numLanes="1" speed="2.78" disallow="tram rail_urban rail rail_electric rail_fast ship" oneway="0" />
    <type id="highway.motorway" priority="14" numLanes="2" speed="39.44" allow="private emergency authority army vip passenger hov taxi bus coach delivery truck trailer motorcycle evehicle custom1 custom2" oneway="1" />
    <type id="highway.motorway_link" priority="9" numLanes="1" speed="22.22" allow="private emergency authority army vip passenger hov taxi bus coach delivery truck trailer motorcycle evehicle custom1 custom2" oneway="1" />
    <type id="highway.path" priority="1" numLanes="1" speed="5.56" allow="pedestrian bicycle" oneway="0" width="2.00" />
    <type id="highway.pedestrian" priority="1" numLanes="1" speed="2.78" allow="pedestrian" oneway="1" width="2.00" />
    <type id="highway.primary" priority="12" numLanes="2" speed="27.78" disallow="tram rail_urban rail rail_electric rail_fast ship" oneway="0" />
    <type id="highway.primary_link" priority="7" numLanes="1" speed="22.22" disallow="tram rail_urban rail rail_electric rail_fast ship" oneway="0" />
    <type id="highway.raceway" priority="15" numLanes="2" speed="83.33" allow="vip" oneway="0" />
    <type id="highway.residential" priority="3" numLanes="1" speed="13.89" disallow="tram rail_urban rail rail_electric rail_fast ship" oneway="0" />
    <type id="highway.secondary" priority="11" numLanes="1" speed="27.78" disallow="tram rail_urban rail rail_electric rail_fast ship" oneway="0" />
    <type id="highway.secondary_link" priority="6" numLanes="1" speed="22.22" disallow="tram rail_urban rail rail_electric rail_fast ship" oneway="0" />
    <type id="highway.service" priority="1" numLanes="1" speed="5.56" allow="pedestrian delivery bicycle" oneway="0" />
    <type id="highway.stairs" priority="1" numLanes="1" speed="1.39" allow="pedestrian" oneway="1" width="2.00" />
    <type id="highway.step" priority="1" numLanes="1" speed="1.39" allow="pedestrian" oneway="1" width="2.00" />
    <type id="highway.steps" priority="1" numLanes="1" speed="1.39" allow="pedestrian" oneway="1" width="2.00" />
    <type id="highway.tertiary" priority="10" numLanes="1" speed="22.22" disallow="tram rail_urban rail rail_electric rail_fast ship" oneway="0" />
    <type id="highway.tertiary_link" priority="5" numLanes="1" speed="22.22" disallow="tram rail_urban rail rail_electric rail_fast ship" oneway="0" />
    <type id="highway.track" priority="1" numLanes="1" speed="5.56" allow="pedestrian motorcycle moped bicycle" oneway="0" />
    <type id="highway.trunk" priority="13" numLanes="2" speed="27.78" disallow="pedestrian bicycle tram rail_urban rail rail_electric rail_fast ship" oneway="0" />
    <type id="highway.trunk_link" priority="8" numLanes="1" speed="22.22" disallow="pedestrian bicycle tram rail_urban rail rail_electric rail_fast ship" oneway="0" />
    <type id="highway.unclassified" priority="4" numLanes="1" speed="13.89" disallow="tram rail_urban rail rail_electric rail_fast ship" oneway="0" />
    <type id="highway.unsurfaced" priority="1" numLanes="1" speed="8.33" disallow="tram rail_urban rail rail_electric rail_fast ship" oneway="0" />
    <type id="railway.highspeed" priority="21" numLanes="1" speed="69.44" allow="rail_fast" oneway="1" />
    <type id="railway.light_rail" priority="19" numLanes="1" speed="27.78" allow="rail_urban" oneway="1" />
    <type id="railway.preserved" priority="16" numLanes="1" speed="27.78" allow="rail" oneway="1" />
    <type id="railway.rail" priority="20" numLanes="1" speed="44.44" allow="rail" oneway="1" />
    <type id="railway.subway" priority="18" numLanes="1" speed="27.78" allow="rail_urban" oneway="1" />
    <type id="railway.tram" priority="17" numLanes="1" speed="13.89" allow="tram" oneway="1" />

    <edge id="100" function="internal" lanes="[{'id': '100_0', 'index': '0', 'disallow': 'tram rail_urban rail rail_electric rail_fast ship', 'speed': '3.65', 'length': '4.67', 'shape': '0.04,791.94 -1.18,791.17 -1.60,790.38 -1.22,789.57 -0.04,788.74'}]"><lane id="100_0" index="0" disallow="tram rail_urban rail rail_electric rail_fast ship" speed="3.65" length="4.67" shape="0.04,791.94 -1.18,791.17 -1.60,790.38 -1.22,789.57 -0.04,788.74" /></edge><edge id="200" function="internal" lanes="[{'id': '200_0', 'index': '0', 'disallow': 'tram rail_urban rail rail_electric rail_fast ship', 'speed': '3.65', 'length': '4.67', 'shape': '1109.83,341.91 1110.61,340.70 1111.40,340.28 1112.21,340.67 1113.03,341.86'}]"><lane id="200_0" index="0" disallow="tram rail_urban rail rail_electric rail_fast ship" speed="3.65" length="4.67" shape="1109.83,341.91 1110.61,340.70 1111.40,340.28 1112.21,340.67 1113.03,341.86" /></edge><edge id="300" function="internal" lanes="[{'id': '300_0', 'index': '0', 'disallow': 'tram rail_urban rail rail_electric rail_fast ship', 'speed': '6.82', 'length': '9.59', 'shape': '591.80,1359.68 589.20,1360.16 587.33,1361.32 586.19,1363.17 585.79,1365.71'}]"><lane id="300_0" index="0" disallow="tram rail_urban rail rail_electric rail_fast ship" speed="6.82" length="9.59" shape="591.80,1359.68 589.20,1360.16 587.33,1361.32 586.19,1363.17 585.79,1365.71" /></edge><edge id="400" function="internal" lanes="[{'id': '400_0', 'index': '0', 'disallow': 'tram rail_urban rail rail_electric rail_fast ship', 'speed': '27.78', 'length': '14.78', 'shape': '591.80,1359.68 577.03,1360.09'}]"><lane id="400_0" index="0" disallow="tram rail_urban rail rail_electric rail_fast ship" speed="27.78" length="14.78" shape="591.80,1359.68 577.03,1360.09" /></edge><edge id="500" function="internal" lanes="[{'id': '500_0', 'index': '0', 'disallow': 'tram rail_urban rail rail_electric rail_fast ship', 'speed': '7.87', 'length': '14.49', 'shape': '591.80,1359.68 587.81,1359.28 585.00,1357.69 583.38,1354.89 582.94,1350.90'}]"><lane id="500_0" index="0" disallow="tram rail_urban rail rail_electric rail_fast ship" speed="7.87" length="14.49" shape="591.80,1359.68 587.81,1359.28 585.00,1357.69 583.38,1354.89 582.94,1350.90" /></edge><edge id="600" function="internal" lanes="[{'id': '600_0', 'index': '0', 'disallow': 'tram rail_urban rail rail_electric rail_fast ship', 'speed': '3.65', 'length': '4.67', 'shape': '591.80,1359.68 590.57,1358.94 590.14,1358.15 590.50,1357.34 591.67,1356.49'}]"><lane id="600_0" index="0" disallow="tram rail_urban rail rail_electric rail_fast ship" speed="3.65" length="4.67" shape="591.80,1359.68 590.57,1358.94 590.14,1358.15 590.50,1357.34 591.67,1356.49" /></edge><edge id="700" function="internal" lanes="[{'id': '700_0', 'index': '0', 'disallow': 'tram rail_urban rail rail_electric rail_fast ship', 'speed': '6.35', 'length': '9.04', 'shape': '586.13,1351.01 586.41,1353.50 587.42,1355.24 589.17,1356.24 591.67,1356.49'}]"><lane id="700_0" index="0" disallow="tram rail_urban rail rail_electric rail_fast ship" speed="6.35" length="9.04" shape="586.13,1351.01 586.41,1353.50 587.42,1355.24 589.17,1356.24 591.67,1356.49" /></edge><edge id="800" function="internal" lanes="[{'id': '800_0', 'index': '0', 'disallow': 'tram rail_urban rail rail_electric rail_fast ship', 'speed': '27.78', 'length': '14.70', 'shape': '586.13,1351.01 585.79,1365.71'}]"><lane id="800_0" index="0" disallow="tram rail_urban rail rail_electric rail_fast ship" speed="27.78" length="14.70" shape="586.13,1351.01 585.79,1365.71" /></edge><edge id="900" function="internal" lanes="[{'id': '900_0', 'index': '0', 'disallow': 'tram rail_urban rail rail_electric rail_fast ship', 'speed': '8.22', 'length': '4.11', 'shape': '586.13,1351.01 585.45,1354.94 585.39,1355.04'}]"><lane id="900_0" index="0" disallow="tram rail_urban rail rail_electric rail_fast ship" speed="8.22" length="4.11" shape="586.13,1351.01 585.45,1354.94 585.39,1355.04" /></edge><edge id="1000" function="internal" lanes="[{'id': '1000_0', 'index': '0', 'disallow': 'tram rail_urban rail rail_electric rail_fast ship', 'speed': '3.65', 'length': '1.44', 'shape': '586.13,1351.01 585.30,1352.18'}]"><lane id="1000_0" index="0" disallow="tram rail_urban rail rail_electric rail_fast ship" speed="3.65" length="1.44" shape="586.13,1351.01 585.30,1352.18" /></edge><edge id="1100" function="internal" lanes="[{'id': '1100_0', 'index': '0', 'disallow': 'tram rail_urban rail rail_electric rail_fast ship', 'speed': '8.22', 'length': '10.41', 'shape': '585.39,1355.04 583.71,1357.77 580.90,1359.48 577.03,1360.09'}]"><lane id="1100_0" index="0" disallow="tram rail_urban rail rail_electric rail_fast ship" speed="8.22" length="10.41" shape="585.39,1355.04 583.71,1357.77 580.90,1359.48 577.03,1360.09" /></edge><edge id="1200" function="internal" lanes="[{'id': '1200_0', 'index': '0', 'disallow': 'tram rail_urban rail rail_electric rail_fast ship', 'speed': '3.65', 'length': '3.23', 'shape': '585.30,1352.18 584.48,1352.56 583.70,1352.13 582.94,1350.90'}]"><lane id="1200_0" index="0" disallow="tram rail_urban rail rail_electric rail_fast ship" speed="3.65" length="3.23" shape="585.30,1352.18 584.48,1352.56 583.70,1352.13 582.94,1350.90" /></edge><edge id="1300" function="internal" lanes="[{'id': '1300_0', 'index': '0', 'disallow': 'tram rail_urban rail rail_electric rail_fast ship', 'speed': '6.77', 'length': '9.53', 'shape': '576.99,1356.89 579.52,1356.49 581.35,1355.36 582.49,1353.50 582.94,1350.90'}]"><lane id="1300_0" index="0" disallow="tram rail_urban rail rail_electric rail_fast ship" speed="6.77" length="9.53" shape="576.99,1356.89 579.52,1356.49 581.35,1355.36 582.49,1353.50 582.94,1350.90" /></edge><edge id="1400" function="internal" lanes="[{'id': '1400_0', 'index': '0', 'disallow': 'tram rail_urban rail rail_electric rail_fast ship', 'speed': '27.78', 'length': '14.68', 'shape': '576.99,1356.89 591.67,1356.49'}]"><lane id="1400_0" index="0" disallow="tram rail_urban rail rail_electric rail_fast ship" speed="27.78" length="14.68" shape="576.99,1356.89 591.67,1356.49" /></edge><edge id="1500" function="internal" lanes="[{'id': '1500_0', 'index': '0', 'disallow': 'tram rail_urban rail rail_electric rail_fast ship', 'speed': '7.96', 'length': '14.29', 'shape': '576.99,1356.89 580.89,1357.40 583.65,1359.04 585.28,1361.81 585.79,1365.71'}]"><lane id="1500_0" index="0" disallow="tram rail_urban rail rail_electric rail_fast ship" speed="7.96" length="14.29" shape="576.99,1356.89 580.89,1357.40 583.65,1359.04 585.28,1361.81 585.79,1365.71" /></edge><edge id="1600" function="internal" lanes="[{'id': '1600_0', 'index': '0', 'disallow': 'tram rail_urban rail rail_electric rail_fast ship', 'speed': '3.65', 'length': '4.67', 'shape': '576.99,1356.89 578.20,1357.68 578.61,1358.47 578.22,1359.28 577.03,1360.09'}]"><lane id="1600_0" index="0" disallow="tram rail_urban rail rail_electric rail_fast ship" speed="3.65" length="4.67" shape="576.99,1356.89 578.20,1357.68 578.61,1358.47 578.22,1359.28 577.03,1360.09" /></edge><edge id="1700" function="internal" lanes="[{'id': '1700_0', 'index': '0', 'disallow': 'tram rail_urban rail rail_electric rail_fast ship', 'speed': '6.45', 'length': '9.03', 'shape': '582.59,1365.67 582.27,1363.20 581.24,1361.45 579.49,1360.41 577.03,1360.09'}]"><lane id="1700_0" index="0" disallow="tram rail_urban rail rail_electric rail_fast ship" speed="6.45" length="9.03" shape="582.59,1365.67 582.27,1363.20 581.24,1361.45 579.49,1360.41 577.03,1360.09" /></edge><edge id="1800" function="internal" lanes="[{'id': '1800_0', 'index': '0', 'disallow': 'tram rail_urban rail rail_electric rail_fast ship', 'speed': '27.78', 'length': '14.77', 'shape': '582.59,1365.67 582.94,1350.90'}]"><lane id="1800_0" index="0" disallow="tram rail_urban rail rail_electric rail_fast ship" speed="27.78" length="14.77" shape="582.59,1365.67 582.94,1350.90" /></edge><edge id="1900" function="internal" lanes="[{'id': '1900_0', 'index': '0', 'disallow': 'tram rail_urban rail rail_electric rail_fast ship', 'speed': '8.26', 'length': '4.16', 'shape': '582.59,1365.67 583.20,1361.79 583.33,1361.59'}]"><lane id="1900_0" index="0" disallow="tram rail_urban rail rail_electric rail_fast ship" speed="8.26" length="4.16" shape="582.59,1365.67 583.20,1361.79 583.33,1361.59" /></edge><edge id="2000" function="internal" lanes="[{'id': '2000_0', 'index': '0', 'disallow': 'tram rail_urban rail rail_electric rail_fast ship', 'speed': '3.65', 'length': '1.44', 'shape': '582.59,1365.67 583.41,1364.48'}]"><lane id="2000_0" index="0" disallow="tram rail_urban rail rail_electric rail_fast ship" speed="3.65" length="1.44" shape="582.59,1365.67 583.41,1364.48" /></edge><edge id="2100" function="internal" lanes="[{'id': '2100_0', 'index': '0', 'disallow': 'tram rail_urban rail rail_electric rail_fast ship', 'speed': '8.26', 'length': '10.38', 'shape': '583.33,1361.59 584.92,1358.97 587.74,1357.21 591.67,1356.49'}]"><lane id="2100_0" index="0" disallow="tram rail_urban rail rail_electric rail_fast ship" speed="8.26" length="10.38" shape="583.33,1361.59 584.92,1358.97 587.74,1357.21 591.67,1356.49" /></edge><edge id="2200" function="internal" lanes="[{'id': '2200_0', 'index': '0', 'disallow': 'tram rail_urban rail rail_electric rail_fast ship', 'speed': '3.65', 'length': '3.23', 'shape': '583.41,1364.48 584.21,1364.09 585.01,1364.50 585.79,1365.71'}]"><lane id="2200_0" index="0" disallow="tram rail_urban rail rail_electric rail_fast ship" speed="3.65" length="3.23" shape="583.41,1364.48 584.21,1364.09 585.01,1364.50 585.79,1365.71" /></edge><edge id="2300" function="internal" lanes="[{'id': '2300_0', 'index': '0', 'disallow': 'tram rail_urban rail rail_electric rail_fast ship', 'speed': '3.65', 'length': '4.67', 'shape': '571.08,1732.02 570.24,1733.19 569.42,1733.56 568.64,1733.13 567.88,1731.90'}]"><lane id="2300_0" index="0" disallow="tram rail_urban rail rail_electric rail_fast ship" speed="3.65" length="4.67" shape="571.08,1732.02 570.24,1733.19 569.42,1733.56 568.64,1733.13 567.88,1731.90" /></edge><edge id="2400" function="internal" lanes="[{'id': '2400_0', 'index': '0', 'disallow': 'tram rail_urban rail rail_electric rail_fast ship', 'speed': '3.65', 'length': '4.67', 'shape': '1230.19,1690.80 1229.79,1692.18 1229.15,1692.81 1228.26,1692.67 1227.14,1691.77'}]"><lane id="2400_0" index="0" disallow="tram rail_urban rail rail_electric rail_fast ship" speed="3.65" length="4.67" shape="1230.19,1690.80 1229.79,1692.18 1229.15,1692.81 1228.26,1692.67 1227.14,1691.77" /></edge><edge id="2500" function="internal" lanes="[{'id': '2500_0', 'index': '0', 'disallow': 'tram rail_urban rail rail_electric rail_fast ship', 'speed': '3.65', 'length': '4.67', 'shape': '31.91,1370.30 30.69,1369.53 30.27,1368.74 30.66,1367.93 31.84,1367.11'}]"><lane id="2500_0" index="0" disallow="tram rail_urban rail rail_electric rail_fast ship" speed="3.65" length="4.67" shape="31.91,1370.30 30.69,1369.53 30.27,1368.74 30.66,1367.93 31.84,1367.11" /></edge><edge id="2600" function="internal" lanes="[{'id': '2600_0', 'index': '0', 'disallow': 'tram rail_urban rail rail_electric rail_fast ship', 'speed': '7.91', 'length': '11.26', 'shape': '1131.39,1363.36 1130.30,1360.40 1128.65,1358.28 1126.42,1356.99 1123.62,1356.53'}]"><lane id="2600_0" index="0" disallow="tram rail_urban rail rail_electric rail_fast ship" speed="7.91" length="11.26" shape="1131.39,1363.36 1130.30,1360.40 1128.65,1358.28 1126.42,1356.99 1123.62,1356.53" /></edge><edge id="2700" function="internal" lanes="[{'id': '2700_0', 'index': '0', 'disallow': 'tram rail_urban rail rail_electric rail_fast ship', 'speed': '27.78', 'length': '15.85', 'shape': '1131.39,1363.36 1130.58,1359.56 1129.89,1355.58 1129.37,1351.57 1129.05,1347.70'}]"><lane id="2700_0" index="0" disallow="tram rail_urban rail rail_electric rail_fast ship" speed="27.78" length="15.85" shape="1131.39,1363.36 1130.58,1359.56 1129.89,1355.58 1129.37,1351.57 1129.05,1347.70" /></edge><edge id="2800" function="internal" lanes="[{'id': '2800_0', 'index': '0', 'disallow': 'tram rail_urban rail rail_electric rail_fast ship', 'speed': '7.61', 'length': '15.32', 'shape': '1131.39,1363.36 1130.99,1359.00 1132.18,1355.94 1134.95,1354.17 1139.30,1353.70'}]"><lane id="2800_0" index="0" disallow="tram rail_urban rail rail_electric rail_fast ship" speed="7.61" length="15.32" shape="1131.39,1363.36 1130.99,1359.00 1132.18,1355.94 1134.95,1354.17 1139.30,1353.70" /></edge><edge id="2900" function="internal" lanes="[{'id': '2900_0', 'index': '0', 'disallow': 'tram rail_urban rail rail_electric rail_fast ship', 'speed': '3.65', 'length': '4.67', 'shape': '1131.39,1363.36 1131.89,1362.01 1132.58,1361.43 1133.45,1361.64 1134.51,1362.62'}]"><lane id="2900_0" index="0" disallow="tram rail_urban rail rail_electric rail_fast ship" speed="3.65" length="4.67" shape="1131.39,1363.36 1131.89,1362.01 1132.58,1361.43 1133.45,1361.64 1134.51,1362.62" /></edge><edge id="3000" function="internal" lanes="[{'id': '3000_0', 'index': '0', 'disallow': 'tram rail_urban rail rail_electric rail_fast ship', 'speed': '6.01', 'length': '9.08', 'shape': '1139.19,1356.90 1136.61,1357.18 1134.97,1358.22 1134.27,1360.04 1134.51,1362.62'}]"><lane id="3000_0" index="0" disallow="tram rail_urban rail rail_electric rail_fast ship" speed="6.01" length="9.08" shape="1139.19,1356.90 1136.61,1357.18 1134.97,1358.22 1134.27,1360.04 1134.51,1362.62" /></edge><edge id="3100" function="internal" lanes="[{'id': '3100_0', 'index': '0', 'disallow': 'tram rail_urban rail rail_electric rail_fast ship', 'speed': '27.78', 'length': '15.57', 'shape': '1139.19,1356.90 1123.62,1356.53'}]"><lane id="3100_0" index="0" disallow="tram rail_urban rail rail_electric rail_fast ship" speed="27.78" length="15.57" shape="1139.19,1356.90 1123.62,1356.53" /></edge><edge id="3200" function="internal" lanes="[{'id': '3200_0', 'index': '0', 'disallow': 'tram rail_urban rail rail_electric rail_fast ship', 'speed': '8.57', 'length': '4.43', 'shape': '1139.19,1356.90 1134.94,1356.20 1134.84,1356.14'}]"><lane id="3200_0" index="0" disallow="tram rail_urban rail rail_electric rail_fast ship" speed="8.57" length="4.43" shape="1139.19,1356.90 1134.94,1356.20 1134.84,1356.14" /></edge><edge id="3300" function="internal" lanes="[{'id': '3300_0', 'index': '0', 'disallow': 'tram rail_urban rail rail_electric rail_fast ship', 'speed': '3.65', 'length': '1.44', 'shape': '1139.19,1356.90 1138.02,1356.06'}]"><lane id="3300_0" index="0" disallow="tram rail_urban rail rail_electric rail_fast ship" speed="3.65" length="1.44" shape="1139.19,1356.90 1138.02,1356.06" /></edge><edge id="3400" function="internal" lanes="[{'id': '3400_0', 'index': '0', 'disallow': 'tram rail_urban rail rail_electric rail_fast ship', 'speed': '8.57', 'length': '10.89', 'shape': '1134.84,1356.14 1131.83,1354.43 1129.87,1351.60 1129.05,1347.70'}]"><lane id="3400_0" index="0" disallow="tram rail_urban rail rail_electric rail_fast ship" speed="8.57" length="10.89" shape="1134.84,1356.14 1131.83,1354.43 1129.87,1351.60 1129.05,1347.70" /></edge><edge id="3500" function="internal" lanes="[{'id': '3500_0', 'index': '0', 'disallow': 'tram rail_urban rail rail_electric rail_fast ship', 'speed': '3.65', 'length': '3.23', 'shape': '1138.02,1356.06 1137.65,1355.24 1138.07,1354.46 1139.30,1353.70'}]"><lane id="3500_0" index="0" disallow="tram rail_urban rail rail_electric rail_fast ship" speed="3.65" length="3.23" shape="1138.02,1356.06 1137.65,1355.24 1138.07,1354.46 1139.30,1353.70" /></edge><edge id="3600" function="internal" lanes="[{'id': '3600_0', 'index': '0', 'disallow': 'tram rail_urban rail rail_electric rail_fast ship', 'speed': '7.19', 'length': '10.48', 'shape': '1132.25,1347.52 1132.81,1350.14 1134.17,1352.04 1136.34,1353.23 1139.30,1353.70'}]"><lane id="3600_0" index="0" disallow="tram rail_urban rail rail_electric rail_fast ship" speed="7.19" length="10.48" shape="1132.25,1347.52 1132.81,1350.14 1134.17,1352.04 1136.34,1353.23 1139.30,1353.70" /></edge><edge id="3700" function="internal" lanes="[{'id': '3700_0', 'index': '0', 'disallow': 'tram rail_urban rail rail_electric rail_fast ship', 'speed': '27.78', 'length': '15.28', 'shape': '1132.25,1347.52 1132.55,1351.30 1133.05,1355.12 1133.70,1358.91 1134.51,1362.62'}]"><lane id="3700_0" index="0" disallow="tram rail_urban rail rail_electric rail_fast ship" speed="27.78" length="15.28" shape="1132.25,1347.52 1132.55,1351.30 1133.05,1355.12 1133.70,1358.91 1134.51,1362.62" /></edge><edge id="3800" function="internal" lanes="[{'id': '3800_0', 'index': '0', 'disallow': 'tram rail_urban rail rail_electric rail_fast ship', 'speed': '7.89', 'length': '14.45', 'shape': '1132.25,1347.52 1131.90,1351.50 1130.34,1354.33 1127.58,1356.01 1123.62,1356.53'}]"><lane id="3800_0" index="0" disallow="tram rail_urban rail rail_electric rail_fast ship" speed="7.89" length="14.45" shape="1132.25,1347.52 1131.90,1351.50 1130.34,1354.33 1127.58,1356.01 1123.62,1356.53" /></edge><edge id="3900" function="internal" lanes="[{'id': '3900_0', 'index': '0', 'disallow': 'tram rail_urban rail rail_electric rail_fast ship', 'speed': '3.65', 'length': '4.67', 'shape': '1132.25,1347.52 1131.51,1348.77 1130.74,1349.21 1129.92,1348.85 1129.05,1347.70'}]"><lane id="3900_0" index="0" disallow="tram rail_urban rail rail_electric rail_fast ship" speed="3.65" length="4.67" shape="1132.25,1347.52 1131.51,1348.77 1130.74,1349.21 1129.92,1348.85 1129.05,1347.70" /></edge><edge id="4000" function="internal" lanes="[{'id': '4000_0', 'index': '0', 'disallow': 'tram rail_urban rail rail_electric rail_fast ship', 'speed': '6.37', 'length': '9.04', 'shape': '1123.66,1353.33 1126.13,1353.01 1127.86,1351.96 1128.83,1350.19 1129.05,1347.70'}]"><lane id="4000_0" index="0" disallow="tram rail_urban rail rail_electric rail_fast ship" speed="6.37" length="9.04" shape="1123.66,1353.33 1126.13,1353.01 1127.86,1351.96 1128.83,1350.19 1129.05,1347.70" /></edge><edge id="4100" function="internal" lanes="[{'id': '4100_0', 'index': '0', 'disallow': 'tram rail_urban rail rail_electric rail_fast ship', 'speed': '27.78', 'length': '15.65', 'shape': '1123.66,1353.33 1139.30,1353.70'}]"><lane id="4100_0" index="0" disallow="tram rail_urban rail rail_electric rail_fast ship" speed="27.78" length="15.65" shape="1123.66,1353.33 1139.30,1353.70" /></edge><edge id="4200" function="internal" lanes="[{'id': '4200_0', 'index': '0', 'disallow': 'tram rail_urban rail rail_electric rail_fast ship', 'speed': '9.20', 'length': '4.25', 'shape': '1123.66,1353.33 1127.58,1353.95 1127.82,1354.08'}]"><lane id="4200_0" index="0" disallow="tram rail_urban rail rail_electric rail_fast ship" speed="9.20" length="4.25" shape="1123.66,1353.33 1127.58,1353.95 1127.82,1354.08" /></edge><edge id="4300" function="internal" lanes="[{'id': '4300_0', 'index': '0', 'disallow': 'tram rail_urban rail rail_electric rail_fast ship', 'speed': '3.65', 'length': '1.44', 'shape': '1123.66,1353.33 1124.85,1354.15'}]"><lane id="4300_0" index="0" disallow="tram rail_urban rail rail_electric rail_fast ship" speed="3.65" length="1.44" shape="1123.66,1353.33 1124.85,1354.15" /></edge><edge id="4400" function="internal" lanes="[{'id': '4400_0', 'index': '0', 'disallow': 'tram rail_urban rail rail_electric rail_fast ship', 'speed': '9.20', 'length': '11.30', 'shape': '1127.82,1354.08 1130.70,1355.70 1133.01,1358.59 1134.51,1362.62'}]"><lane id="4400_0" index="0" disallow="tram rail_urban rail rail_electric rail_fast ship" speed="9.20" length="11.30" shape="1127.82,1354.08 1130.70,1355.70 1133.01,1358.59 1134.51,1362.62" /></edge><edge id="4500" function="internal" lanes="[{'id': '4500_0', 'index': '0', 'disallow': 'tram rail_urban rail rail_electric rail_fast ship', 'speed': '3.65', 'length': '3.23', 'shape': '1124.85,1354.15 1125.24,1354.95 1124.83,1355.75 1123.62,1356.53'}]"><lane id="4500_0" index="0" disallow="tram rail_urban rail rail_electric rail_fast ship" speed="3.65" length="3.23" shape="1124.85,1354.15 1125.24,1354.95 1124.83,1355.75 1123.62,1356.53" /></edge><edge id="4600" function="internal" lanes="[{'id': '4600_0', 'index': '0', 'disallow': 'tram rail_urban rail rail_electric rail_fast ship', 'speed': '6.95', 'length': '9.96', 'shape': '611.87,779.00 609.12,779.44 607.13,780.60 605.89,782.47 605.41,785.06'}]"><lane id="4600_0" index="0" disallow="tram rail_urban rail rail_electric rail_fast ship" speed="6.95" length="9.96" shape="611.87,779.00 609.12,779.44 607.13,780.60 605.89,782.47 605.41,785.06" /></edge><edge id="4700" function="internal" lanes="[{'id': '4700_0', 'index': '0', 'disallow': 'tram rail_urban rail rail_electric rail_fast ship', 'speed': '27.78', 'length': '15.16', 'shape': '611.87,779.00 596.71,779.41'}, {'id': '4700_1', 'index': '1', 'disallow': 'tram rail_urban rail rail_electric rail_fast ship', 'speed': '27.78', 'length': '15.16', 'shape': '611.78,775.80 596.62,776.21'}]"><lane id="4700_0" index="0" disallow="tram rail_urban rail rail_electric rail_fast ship" speed="27.78" length="15.16" shape="611.87,779.00 596.71,779.41" /><lane id="4700_1" index="1" disallow="tram rail_urban rail rail_electric rail_fast ship" speed="27.78" length="15.16" shape="611.78,775.80 596.62,776.21" /></edge><edge id="4800" function="internal" lanes="[{'id': '4800_0', 'index': '0', 'disallow': 'tram rail_urban rail rail_electric rail_fast ship', 'speed': '8.58', 'length': '3.81', 'shape': '611.78,775.80 608.02,775.19'}]"><lane id="4800_0" index="0" disallow="tram rail_urban rail rail_electric rail_fast ship" speed="8.58" length="3.81" shape="611.78,775.80 608.02,775.19" /></edge><edge id="4900" function="internal" lanes="[{'id': '4900_0', 'index': '0', 'disallow': 'tram rail_urban rail rail_electric rail_fast ship', 'speed': '3.65', 'length': '1.44', 'shape': '611.78,775.80 610.56,775.03'}]"><lane id="4900_0" index="0" disallow="tram rail_urban rail rail_electric rail_fast ship" speed="3.65" length="1.44" shape="611.78,775.80 610.56,775.03" /></edge><edge id="5000" function="internal" lanes="[{'id': '5000_0', 'index': '0', 'disallow': 'tram rail_urban rail rail_electric rail_fast ship', 'speed': '8.58', 'length': '13.36', 'shape': '608.02,775.19 607.75,775.14 604.93,772.92 603.30,769.13 602.88,763.77'}]"><lane id="5000_0" index="0" disallow="tram rail_urban rail rail_electric rail_fast ship" speed="8.58" length="13.36" shape="608.02,775.19 607.75,775.14 604.93,772.92 603.30,769.13 602.88,763.77" /></edge><edge id="5100" function="internal" lanes="[{'id': '5100_0', 'index': '0', 'disallow': 'tram rail_urban rail rail_electric rail_fast ship', 'speed': '3.65', 'length': '3.23', 'shape': '610.56,775.03 610.14,774.24 610.51,773.43 611.69,772.60'}]"><lane id="5100_0" index="0" disallow="tram rail_urban rail rail_electric rail_fast ship" speed="3.65" length="3.23" shape="610.56,775.03 610.14,774.24 610.51,773.43 611.69,772.60" /></edge><edge id="5200" function="internal" lanes="[{'id': '5200_0', 'index': '0', 'disallow': 'tram rail_urban rail rail_electric rail_fast ship', 'speed': '6.39', 'length': '9.04', 'shape': '606.08,763.87 606.36,766.35 607.38,768.10 609.13,769.11 611.60,769.40'}]"><lane id="5200_0" index="0" disallow="tram rail_urban rail rail_electric rail_fast ship" speed="6.39" length="9.04" shape="606.08,763.87 606.36,766.35 607.38,768.10 609.13,769.11 611.60,769.40" /></edge><edge id="5300" function="internal" lanes="[{'id': '5300_0', 'index': '0', 'disallow': 'tram rail_urban rail rail_electric rail_fast ship', 'speed': '27.78', 'length': '21.21', 'shape': '606.08,763.87 605.41,785.06'}]"><lane id="5300_0" index="0" disallow="tram rail_urban rail rail_electric rail_fast ship" speed="27.78" length="21.21" shape="606.08,763.87 605.41,785.06" /></edge><edge id="5400" function="internal" lanes="[{'id': '5400_0', 'index': '0', 'disallow': 'tram rail_urban rail rail_electric rail_fast ship', 'speed': '8.99', 'length': '17.43', 'shape': '606.08,763.87 605.36,769.17 603.54,773.00 600.63,775.35 596.62,776.21'}]"><lane id="5400_0" index="0" disallow="tram rail_urban rail rail_electric rail_fast ship" speed="8.99" length="17.43" shape="606.08,763.87 605.36,769.17 603.54,773.00 600.63,775.35 596.62,776.21" /></edge><edge id="5500" function="internal" lanes="[{'id': '5500_0', 'index': '0', 'disallow': 'tram rail_urban rail rail_electric rail_fast ship', 'speed': '3.65', 'length': '4.67', 'shape': '606.08,763.87 605.24,765.04 604.43,765.42 603.64,765.00 602.88,763.77'}]"><lane id="5500_0" index="0" disallow="tram rail_urban rail rail_electric rail_fast ship" speed="3.65" length="4.67" shape="606.08,763.87 605.24,765.04 604.43,765.42 603.64,765.00 602.88,763.77" /></edge><edge id="5600" function="internal" lanes="[{'id': '5600_0', 'index': '0', 'disallow': 'tram rail_urban rail rail_electric rail_fast ship', 'speed': '6.93', 'length': '9.94', 'shape': '596.45,769.81 599.20,769.37 601.19,768.22 602.41,766.35 602.88,763.77'}]"><lane id="5600_0" index="0" disallow="tram rail_urban rail rail_electric rail_fast ship" speed="6.93" length="9.94" shape="596.45,769.81 599.20,769.37 601.19,768.22 602.41,766.35 602.88,763.77" /></edge><edge id="5700" function="internal" lanes="[{'id': '5700_0', 'index': '0', 'disallow': 'tram rail_urban rail rail_electric rail_fast s