<?xml version="1.0" encoding="UTF-8"?>

<!-- generated on 2023-03-02 09:24:36.831756 by randomTrips.py UNKNOWN
<configuration>
    <end value="3600"/>
    <net-file value="map.net.xml"/>
    <period value="3.0"/>
    <validate value="True"/>
</configuration>
-->

<!-- generated on 2023-03-02 09:24:36 by Eclipse SUMO duarouter Version 1.16.0
<configuration xmlns:xsi="http://www.w3.org/2001/XMLSchema-instance" xsi:noNamespaceSchemaLocation="http://sumo.dlr.de/xsd/duarouterConfiguration.xsd">

    <input>
        <net-file value="map.net.xml"/>
        <route-files value="trips.trips.xml"/>
    </input>

    <output>
        <output-file value="routes.rou.xml"/>
        <alternatives-output value="NUL"/>
    </output>

    <time>
        <begin value="0"/>
        <end value="3600"/>
    </time>

    <report>
        <no-warnings value="true"/>
        <ignore-errors value="true"/>
        <no-step-log value="true"/>
    </report>

</configuration>
-->

<routes xmlns:xsi="http://www.w3.org/2001/XMLSchema-instance" xsi:noNamespaceSchemaLocation="http://sumo.dlr.de/xsd/routes_file.xsd">
    <vehicle id="0" depart="0.00">
        <route edges="231808124 231808116#3 945754276 70203362#1 70203362#2 70203362#3 70203362#4 70203362#5 70203362#6 70203362#7 -267612556#9 -267612556#8 -267612556#7 -267612556#6 -267612556#5 -267612556#4 -267612556#3 161503499#2 161503499#3 161503499#4 161503499#5 -161503499#5"/>
    </vehicle>
    <vehicle id="1" depart="3.00">
        <route edges="-268599172#3 -268599172#2 -268599172#1 -268599172#0 236668173#3 231820215#0 231820215#1 267612556#0 267612556#1 267612556#2 267612556#3 267612556#4 267612556#5 267612556#6 267612556#7 267612556#8 267612556#9 267612556#10 267612556#11 267612556#12 -267612556#12"/>
    </vehicle>
    <vehicle id="2" depart="6.00">
        <route edges="267612556#7 -267612556#7 -267612556#6 -267612556#5 -267612556#4 -267612556#3 161503499#2 161503499#3 161503499#4 161503499#5 161503499#6 -642235997#1 725894817#0 725894817#1 279360273#0 279360273#1 279360273#2 279360273#3 -240079271#0 240079271#0"/>
    </vehicle>
    <vehicle id="3" depart="9.00">
        <route edges="417713712 282304746 417713709 -417713714 230480442#5 134626495 -161503553 231793626#0 231793626#1 231793626#2 231793626#3 231793626#4 231793626#5 231793626#6 161503517#0 161503517#1 -161503508#3 -161503508#2 231791566#0 231791592#0 231791592#1 231791592#2 -231791592#2"/>
    </vehicle>
    <vehicle id="4" depart="12.00">
        <route edges="-725894815#0 -725894814#1 775986570#2 779834467 779834473 779834475 642235997#0 642235997#1 -231793627#4 -231793627#3 -231793627#2 -231793627#1 -231793627#0 231793623#0 231793623#1 231793623#2 231793622#0 231793622#1 231793622#2 231793622#3 231793622#4 -231791579 -161503516"/>
    </vehicle>
    <vehicle id="5" depart="15.00">
        <route edges="-265762563#2 -265762563#1 -265762563#0 231793617#1 231793617#2 231793617#3 161503553 -134626495 -97049435#4 -97049435#3 231521461#4"/>
    </vehicle>
    <vehicle id="6" depart="18.00">
        <route edges="-161503499#6 161503499#6 -642235997#1 725894817#0 725894817#1 279360273#0 279360273#1 279360273#2 -240079273"/>
    </vehicle>
    <vehicle id="7" depart="21.00">
        <route edges="231808154#0 231808154#1 231808154#2 231808154#3 457336173#0 457336152#2 457336152#3 457336155#0 457336155#1 457336155#2 457336155#3 457336155#4 457336155#5 -231793625#1 -231793625#0 161503509#0 161503509#1 -231791582#2 231791582#2"/>
    </vehicle>
    <vehicle id="8" depart="24.00">
        <route edges="-265762565#2 -265762565#1 -265762565#0 231793617#3 231793626#0 231793626#1 231793626#2 231793626#3 231793626#4"/>
    </vehicle>
    <vehicle id="9" depart="27.00">
        <route edges="270087466#0 270087466#1 270087466#2 70203362#14 231793627#0 231793627#1 231793627#2 231793627#3 231793627#4 -642235997#1 -642235997#0 779834472 779834476 779834474 99478595#0 -725894814#1 779834469#0 850367640#0 850367640#1 850367640#2 850367640#3 850367640#4 -1103980862"/>
    </vehicle>
    <vehicle id="10" depart="30.00">
        <route edges="270087462#1 -270087460#0 236669235#2 236669235#3 236669235#4 236669235#5 231793627#0 231793627#1 231793627#2 231793627#3 231793627#4 -642235997#1 725894817#0 725894817#1 725894817#2 725894817#3 -240079265#1 -240079265#0 -240079264 240617302#1"/>
    </vehicle>
    <vehicle id="11" depart="33.00">
        <route edges="-278571336#0 -278571334 231521461#2 231521461#3 97049435#3 97049435#4 134626495 -161503553 -231793617#3 -231793617#2 -231793617#1 -231793617#0 -231793627#4 -231793627#3 -231793627#2 -231793627#1 -231793627#0 -236669235#5 -236669235#4 -236669235#3 -236669235#2 -236669235#1 -236669235#0 236669232#0 236669232#1 236669232#2 236669232#3 236669232#4 236669232#5 231808165#0 -231808125#1 231808102#2 -231808128#0"/>
    </vehicle>
    <vehicle id="12" depart="36.00">
        <route edges="799269876#0 -799269876#0 -134626495 -97049435#4 -97049435#3 -97049435#2 -97049435#1 278571538#0 -278571539"/>
    </vehicle>
    <vehicle id="13" depart="39.00">
        <route edges="-231791595#0 231791595#0 -231791572 -231791597#1"/>
    </vehicle>
    <vehicle id="14" depart="42.00">
        <route edges="278571542 -278571542 -278571541#0 -278571535#1 -278571535#0 -278571334 231521461#2 231521461#3 97049435#3 97049435#4 134626495 -161503553 -231793617#3 -231793617#2 -231793617#1 -231793617#0 -231793627#4 -231793627#3 -231793627#2 -231793627#1 -231793627#0 -236669235#5 -236669235#4 -236669235#3 -236669235#2 -236669235#1 -236669235#0 236669232#0 236669232#1 236669232#2 236669232#3 236669232#4 236669232#5 231808165#0 -231808125#1 -231808125#0 -231808129#0 231808103#2"/>
    </vehicle>
    <vehicle id="15" depart="45.00">
        <route edges="270087464#1 270087464#2 270087462#1 -270087460#0 236669235#2 236669235#3 236669235#4 236669235#5 -70203362#14 -70203362#13 -70203362#12 -70203362#11 268005507#0"/>
    </vehicle>
    <vehicle id="16" depart="48.00">
        <route edges="231791565#1 231791565#2 231791591#1 231791591#2 -231793622#1 -231793622#0 -231793623#2 -231793623#1 -231793623#0 231793627#0 231793627#1 231793627#2 231793627#3 231793627#4 -642235997#1 -642235997#0 779834472 779834476 779834474 99478595#0 -725894814#1 779834469#0 850367640#0 850367640#1 850367640#2 850367645"/>
    </vehicle>
    <vehicle id="17" depart="51.00">
        <route edges="-284004310#1 284004310#1 284004311#0 -284004305#1 -284004305#0 231808159#1 231808159#2 236668173#0 236668173#1 236668173#2 236668173#3 231820215#0 231820215#1 267612556#0 267612556#1 267612556#2 267612556#3 267612556#4 267612556#5 267612556#6 267612556#7 267612556#8 267612556#9 267612556#10 267612556#11 267612556#12 267612556#13 457336155#0 457336155#1 457336155#2 457336155#3 457336155#4 457336155#5 -231793625#1 -231793625#0 -99297428#6 -99297428#5 -231791588#2 231791588#2"/>
    </vehicle>
    <vehicle id="18" depart="54.00">
        <route edges="270087489#1 573587766 -573587766 -270087489#1 270087490#0 -270087491#1 -270087493 267612556#7 267612556#8 267612556#9 -70203362#7 -70203362#6 -70203362#5 -70203362#4 -70203362#3 -70203362#2 -70203362#1 -945754276 -231808116#3 231808116#3"/>
    </vehicle>
    <vehicle id="19" depart="57.00">
        <route edges="284004301 -98584143#1 -268000578#0 -236668161#4 775986570#1 775986570#2 779834467 779834473 779834475 642235997#0 642235997#1 -231793627#4 -231793627#3 -231793627#2 -231793627#1 -231793627#0 -236669235#5 -236669235#4 -236669235#3 -236669235#2 -236669235#1 -236669235#0 -161503551#2 -161503551#1 -161503551#0 231793620#3"/>
    </vehicle>
    <vehicle id="20" depart="60.00">
        <route edges="240451937#2 -240451937#2 -240451937#1 -240451937#0 240079268#3 240079268#4 240079268#5 240079268#6 240079268#7 240079268#8 240079268#9 240079268#10 240079268#11 240079268#12 240079268#13 279360280#0 279360280#1 279360278#0 279360278#1 279360279#0 279360279#1 279360279#2 779834469#7 642235997#1 -231793627#4 -231793627#3 -231793627#2 -231793627#1 -231793627#0 231793623#0 231793623#1 231793623#2 231793622#0 231793622#1 231793622#2 231793622#3 231793622#4 -231791579 -161503516 -161503536#1 -161503536#0 -231791564#0"/>
    </vehicle>
    <vehicle id="21" depart="63.00">
        <route edges="-267612556#13 267612556#13 457336155#0 457336155#1 457336155#2 457336155#3 457336155#4 457336155#5 -231793625#1 231791562#0 231791562#1 231791562#2 231791562#3 -268906209"/>
    </vehicle>
    <vehicle id="22" depart="66.00">
        <route edges="-231791586#2 -231791586#1 -231791586#0 231793627#3 231793627#4 -161503499#6 -161503499#5 -161503499#4 -161503499#3 -161503499#2 -267612556#2 -267612556#1 -267612556#0 -231820215#1 -231820215#0 -236668173#3 -236668173#2 -236668173#1 -236668173#0 -268000578#3 -268000578#2"/>
    </vehicle>
    <vehicle id="23" depart="69.00">
        <route edges="-231791612 -231793622#5 -231793622#4 -231793622#3 -231793622#2 -231793622#1 -231793622#0 -231793623#2 -231793623#1 -231793623#0 -70203362#14 -70203362#13 -70203362#12 -70203362#11 -70203362#10 -70203362#9 -70203362#8 -267612556#9 -267612556#8 -267612556#7 -267612556#6 -267612556#5 -267612556#4 -267612556#3 -267612556#2 -267612556#1 -267612556#0 -231820215#1 -231820215#0 -236668173#3 268599172#0 268599172#1 268599172#2 268599172#3 268599172#4 268599172#5 -268599173#9 -268599173#8"/>
    </vehicle>
    <vehicle id="24" depart="72.00">
        <route edges="231808116#1 231808116#2 231808116#3 945754276 70203362#1 70203362#2 70203362#3 70203362#4 70203362#5 70203362#6 70203362#7 -267612556#9 -267612556#8 -267612556#7 -267612556#6 -267612556#5 -267612556#4 -267612556#3 -267612556#2 -267612556#1 -267612556#0 -231820215#1 -231820215#0 -236668173#3 -236668173#2 -236668173#1 -236668173#0 -231808159#2 -231808159#1 284004305#0 284004305#1 -284004311#0 -284004310#1"/>
    </vehicle>
    <vehicle id="25" depart="75.00">
        <route edges="-284004305#2 -284004305#1 -284004305#0 231808159#1 231808159#2 -268000578#3 -268000578#2 -268000578#1 -268000578#0 -236668161#4 775986570#1 779834469#0 779834469#1 688038729#5 688038729#6 688038729#7 688038729#8 688038729#9 688038729#10 688038729#11 688038729#12 688038729#13 240617302#2 240617302#3 240617304 240617301#3 240617301#4 240617301#0 240079268#0 240079268#1 240079268#2 240451937#0 240451937#1 240451937#2 -240451949#2"/>
    </vehicle>
    <vehicle id="26" depart="78.00">
        <route edges="-268013269#1 268013270#0 268013273 -161503499#5 -161503499#4 -161503499#3 -161503499#2 -161503499#1 766003481#0"/>
    </vehicle>
    <vehicle id="27" depart="81.00">
        <route edges="231808129#4 -231808129#4 -231808129#3 -231808129#2 -231808129#1 -231808129#0 231808103#2 231808103#3 231808107"/>
    </vehicle>
    <vehicle id="28" depart="84.00">
        <route edges="-231820209 -161503499#3 268005518#0 268005518#1 268005518#2 268005505#4"/>
    </vehicle>
    <vehicle id="29" depart="87.00">
        <route edges="-231808132#2 -231808132#1 -231808132#0 -231808162#0 -267612556#14 -267612556#13 -267612556#12 -267612556#11 -267612556#10 -267612556#9 -267612556#8 -267612556#7 -267612556#6 -267612556#5 -267612556#4 -267612556#3 161503499#2 161503499#3 161503499#4 161503499#5 161503499#6 231793617#0 231793617#1 231793617#2 231793617#3 161503553 799269881 799269880 799269878#0 230480442#2 230480442#3 230480442#4 417713714 -417713709 -282304746 -417713712"/>
    </vehicle>
    <vehicle id="30" depart="90.00">
        <route edges="97049435#4 134626495 -161503553 -231793617#3 -231793617#2 -231793617#1 -231793617#0 -231793627#4 -231793627#3 -231793627#2 -231793627#1 -231793627#0 -236669235#5 -236669235#4 -236669235#3 -236669235#2 -236669235#1 -236669235#0 236669232#0 236669232#1 236669232#2 236669232#3 236669232#4 236669232#5 231808165#0 231808165#1 231808165#2"/>
    </vehicle>
    <vehicle id="31" depart="93.00">
        <route edges="231791580#4 -231791596#1 161503546 -231793626#2 -231793626#1 -231793626#0 -231793617#3 -231793617#2 -231793617#1 -231793617#0 -642235997#1 725894817#0 725894817#1 279360273#0 779834469#6 -279360279#2 240079280#0 240079280#1 240079280#2 240079280#3"/>
    </vehicle>
    <vehicle id="32" depart="96.00">
        <route edges="278571537#1 278571539 -278571538#0 97049435#1 97049435#2 97049435#3 97049435#4 134626495 -161503553 231793626#0 231793626#1 231793626#2 231793626#3 231793626#4 231793626#5 231793626#6 161503517#0 161503517#1 161503509#0 231791582#0 268906202#0 268906202#1"/>
    </vehicle>
    <vehicle id="33" depart="99.00">
        <route edges="-267612556#2 267612556#2 267612556#3 267612556#4 267612556#5 267612556#6 267612556#7 267612556#8 267612556#9 267612556#10 267612556#11 267612556#12 267612556#13 457336155#0 457336155#1 457336155#2 457336155#3 457336155#4 457336155#5 -231793625#1 -231793625#0 -99297428#6 -99297428#5 -99297428#4 -99297428#3 -99297428#2 -99297428#1 -231791573 231791563#1 -231791574 -161503538"/>
    </vehicle>
    <vehicle id="34" depart="102.00">
        <route edges="-270087474 -270087472 270087476#0 270087476#1 236669232#4 236669232#5 -267612556#14 -267612556#13 -267612556#12 -267612556#11 -267612556#10 -267612556#9 -267612556#8 -267612556#7 -267612556#6 -267612556#5 -267612556#4 -267612556#3 -267612556#2 -267612556#1 -267612556#0 -231820215#1 -231820215#0 -236668173#3 268599172#0 -268599172#0"/>
    </vehicle>
    <vehicle id="35" depart="105.00">
        <route edges="-240451949#0 240079268#13 240079275 840813158 840813157 -240079274#0 240079267#0 240079267#1 779834469#4"/>
    </vehicle>
    <vehicle id="37" depart="111.00">
        <route edges="231808162#1 -231793620#3 161503551#0 161503551#1 161503551#2 236669235#0 236669235#1 236669235#2 236669235#3 236669235#4 236669235#5 231793627#0 231793627#1 231793627#2 231793627#3 231793627#4 -642235997#1 -642235997#0 779834472 779834476 779834474 99478595#0 -725894814#1 779834469#0 779834469#1 688038729#5 688038729#6 688038729#7 688038729#8 -688038729#8"/>
    </vehicle>
    <vehicle id="38" depart="114.00">
        <route edges="650572262 -231793617#1 -231793617#0 -642235997#1 725894817#0 725894817#1 725894817#2 725894817#3 240079266 -688038729#3 -688038729#2 -688038729#1 1103982939"/>
    </vehicle>
    <vehicle id="39" depart="117.00">
        <route edges="-268013267 268013267 268013271 -268013270#2 268013274 -161503499#4 -161503499#3 -161503499#2 267612556#3 267612556#4 267612556#5 -268005517#1"/>
    </vehicle>
    <vehicle id="40" depart="120.00">
        <route edges="231791581#2 -231793622#0 -231793623#2 -231793623#1 -231793623#0 231793627#0 231793627#1 231793627#2 231793627#3 231793627#4 -161503499#6 -161503499#5 -268013274 -268013270#1"/>
    </vehicle>
    <vehicle id="41" depart="123.00">
        <route edges="231791596#1 -231791596#1 161503546 231793626#3 231793626#4 231793626#5 231793626#6 -231793623#2 -231793623#1 -231793623#0 -70203362#14 -70203362#13 -70203362#12 -70203362#11 -70203362#10 -70203362#9 -70203362#8 -70203362#7 -70203362#6 -70203362#5 -70203362#4 -70203362#3 -70203362#2 -457336173#3 -457336173#2 457336173#2"/>
    </vehicle>
    <vehicle id="42" depart="126.00">
        <route edges="-642235997#1 642235997#1 231793617#0 265762563#0 -265762567#2"/>
    </vehicle>
    <vehicle id="43" depart="129.00">
        <route edges="99478595#1 -236668161#4 775986570#1 775986570#2 779834467 779834473 779834475 642235997#0 642235997#1 231793617#0 231793617#1 231793617#2 231793617#3 231793626#0 231793626#1 231793626#2 -161503546 231791596#1 231791580#5 231791561#0"/>
    </vehicle>
    <vehicle id="44" depart="132.00">
        <route edges="-231791593#2 -231791593#1 -231791593#0 231791586#3 231793626#2 231793626#3 231793626#4 231793626#5 231793626#6 231793622#0 -231791581#2 -231791581#1 231791565#0 231791565#1 -231791565#1"/>
    </vehicle>
    <vehicle id="45" depart="135.00">
        <route edges="-231793622#1 -231793622#0 161503517#0 161503517#1 231793625#0 231793625#1 236669232#0 236669232#1 236669232#2 236669232#3 236669232#4 236669232#5 231808165#0 -231808125#1 231808102#2 231808128#1"/>
    </vehicle>
    <vehicle id="46" depart="138.00">
        <route edges="268906203#3 -231791562#1 231791577 236669235#1 236669235#2 236669235#3 236669235#4 236669235#5 231793627#0 231793627#1 231793627#2 231793627#3 231793627#4 -642235997#1 -642235997#0 779834472 779834476 779834474 99478595#0 -725894814#1 779834469#0 850367640#0 850367640#1 850367640#2 850367640#3 850367640#4 -850367640#4"/>
    </vehicle>
    <vehicle id="47" depart="141.00">
        <route edges="-231791577 -231791562#0 231793625#1 236669232#0 236669232#1 236669232#2 236669232#3 236669232#4 236669232#5 231808165#0 231808165#1 457336173#0 -457336173#0"/>
    </vehicle>
    <vehicle id="48" depart="144.00">
        <route edges="99297428#6 161503509#0 161503509#1 161503509#2 -231793626#6 -231793626#5 -231793626#4 -161503540#2 231791571"/>
    </vehicle>
    <vehicle id="49" depart="147.00">
        <route edges="850367641#0 -850367641#0 -850367640#5 -850367640#4 -850367640#3 -850367640#2 -850367640#1 -850367640#0 779834469#1 -688038729#4 725894816 99478595#1 268000578#0 268000578#1 268000578#2 268000578#3 -231808159#2 -231808159#1 284004305#0 284004306#1 284004306#2"/>
    </vehicle>
    <vehicle id="50" depart="150.00">
        <route edges="-1103983855 725894817#1 1103983852 1103984862#0 1103984862#1 1103984862#2 267612556#0 267612556#1 267612556#2 267612556#3 267612556#4 267612556#5 267612556#6 267612556#7"/>
    </vehicle>
    <vehicle id="51" depart="153.00">
        <route edges="240079265#1 -240079265#1 779834469#3 779834469#4 779834469#5 779834469#6 779834469#7 642235997#1 231793617#0 231793617#1 231793617#2 231793617#3 231793626#0 231793626#1 231793626#2 231793626#3 -161503540#2 231791571 -231791580#2 231791580#2"/>
    </vehicle>
    <vehicle id="52" depart="156.00">
        <route edges="-268013269#1 -268013269#0 -268013265#2 -268013265#1 -268013265#0 -231793627#3 -231793627#2 -231793627#1 -231793627#0 -236669235#5 -236669235#4 -236669235#3 -236669235#2 -236669235#1 -236669235#0 236669232#0 236669232#1 236669232#2 236669232#3 236669232#4 236669232#5 231808165#0 231808165#1 231808165#2 231808165#3"/>
    </vehicle>
    <vehicle id="53" depart="159.00">
        <route edges="-231793622#4 -231793622#3 -231793622#2 -231793622#1 -231793622#0 -231793623#2 -231793623#1 -231793623#0 231793627#0 231793627#1 231793627#2 231793627#3 231793627#4 -642235997#1 725894817#0 725894817#1 279360273#0 279360273#1 850368089#0 850368090#0 -850368090#0"/>
    </vehicle>
    <vehicle id="54" depart="162.00">
        <route edges="-850368091 850368091 779834469#5 779834469#6 779834469#7 642235997#1 231793617#0 231793617#1 231793617#2 231793617#3 161503553 799269881 799269880 799269878#0 799269878#1"/>
    </vehicle>
    <vehicle id="56" depart="168.00">
        <route edges="161503508#1 161503508#2 161503508#3 231793625#0 231793625#1 236669235#0 -236669235#0"/>
    </vehicle>
    <vehicle id="57" depart="171.00">
        <route edges="642235997#0 642235997#1 231793617#0 231793617#1 231793617#2 231793617#3 161503553 799269881 799269880 799269878#0 799269878#1 799269878#2 231521461#8 612822785#1 612822785#2 341733685#1 341733685#2"/>
    </vehicle>
    <vehicle id="58" depart="174.00">
        <route edges="-270081577#2 -270081577#1 -270081577#0 236669232#2 236669232#3 236669232#4 236669232#5 231808165#0"/>
    </vehicle>
    <vehicle id="59" depart="177.00">
        <route edges="231793626#5 231793626#6 161503517#0 161503517#1 231793625#0 231793625#1 236669232#0 236669232#1 236669232#2 236669232#3 236669232#4 236669232#5 231808165#0 231808165#1 -231808154#3 -231808127#3 -231808127#2 -231808127#1 -231808127#0"/>
    </vehicle>
    <vehicle id="60" depart="180.00">
        <route edges="268013264#0 268013264#1 -268013265#0 -231793627#3 231791586#0 231791586#1 231791586#2 231791586#3 231793626#2 -161503546 231791596#1 231791580#5 231791580#6"/>
    </vehicle>
    <vehicle id="61" depart="183.00">
        <route edges="268599172#4 -268599172#4 -268599172#3 -268599172#2 -268599172#1 -268599172#0 236668173#3 231820215#0 231820215#1 267612556#0 267612556#1 267612556#2 267612556#3 267612556#4 267612556#5 267612556#6 267612556#7 267612556#8 267612556#9 267612556#10 267612556#11 267612556#12 267612556#13 457336155#0 457336155#1 457336155#2 457336155#3 457336155#4 457336155#5 -231793625#1 -231793625#0 -99297428#6 -99297428#5 -99297428#4 -99297428#3 -99297428#2 -99297428#1 -231791573 231791573"/>
    </vehicle>
    <vehicle id="62" depart="186.00">
        <route edges="-1028359465 97049435#2 97049435#3 97049435#4 134626495 -161503553 -231793617#3 -231793617#2 -231793617#1 -231793617#0 -161503499#6 -161503499#5 -161503499#4 -161503499#3 -161503499#2 267612556#3 267612556#4 267612556#5 267612556#6 270087493 -270087493"/>
    </vehicle>
    <vehicle id="63" depart="189.00">
        <route edges="-134626495 134626495 -161503553 -231793617#3 -231793617#2 -231793617#1 -231793617#0 -231793627#4 -231793627#3 -231793627#2 -231793627#1 -231793627#0 -70203362#14 -70203362#13 -70203362#12 -70203362#11 -70203362#10 -70203362#9 70203362#9"/>
    </vehicle>
    <vehicle id="64" depart="192.00">
        <route edges="345687070#2 -345687070#0 998139966#1 161503499#0 161503499#1 -267612556#2 -267612556#1 -267612556#0 -231820215#1 -231820215#0 -236668173#3 -236668173#2 -236668173#1 -236668173#0 -268000578#3 -268000578#2 -268000578#1 -268000578#0 -236668161#4 -236668161#3 -236668161#2 -236668161#1 -236668161#0 -134557731 231521461#0 231521461#1 278571334 278571535#0 278571535#1"/>
    </vehicle>
    <vehicle id="65" depart="195.00">
        <route edges="-270087465 -270087464#0 270087462#0 270087462#1 -270087460#0 236669235#2 236669235#3 236669235#4 236669235#5 231793623#0 231793623#1 231793623#2 231793622#0 -231791581#2 -231791570"/>
    </vehicle>
    <vehicle id="66" depart="198.00">
        <route edges="345687070#1 345687070#2 -345687070#0 998139966#1 161503499#0 161503499#1 161503499#2 161503499#3 161503499#4 161503499#5 161503499#6 -642235997#1 -642235997#0 779834472 779834476 779834474"/>
    </vehicle>
    <vehicle id="67" depart="201.00">
        <route edges="-231791591#2 231791591#2 231793622#2 231793622#3 231793622#4 -231791579 -161503516 -161503536#1 161503536#1 161503516"/>
    </vehicle>
    <vehicle id="68" depart="204.00">
        <route edges="-231791580#4 -231791580#3 -231791571 161503540#2 -231793626#3 -231793626#2 -231793626#1 -231793626#0 -231793617#3 -231793617#2 -231793617#1 -231793617#0 -161503499#6 -161503499#5 -268013274 268013274"/>
    </vehicle>
    <vehicle id="69" depart="207.00">
        <route edges="268013266#0 268013266#1 -268013263#0 268005505#2 -268005507#2 -268005507#1 -268005507#0 -70203362#10 -70203362#9 -70203362#8 -70203362#7 -70203362#6 -70203362#5 -70203362#4 -231808101#5 -231808101#4"/>
    </vehicle>
    <vehicle id="70" depart="210.00">
        <route edges="1072226224#0 1072226224#1 1072226224#2 231820215#1 267612556#0 267612556#1 267612556#2 161503499#2 161503499#3 161503499#4 161503499#5 161503499#6 -231793627#4 -231793627#3 231791586#0 231791586#1 231791586#2 231791586#3"/>
    </vehicle>
    <vehicle id="71" depart="213.00">
        <route edges="-268013268#1 268013268#1 268013265#2 268013269#0 268013270#0 268013273 -161503499#5 -161503499#4 -161503499#3 -161503499#2 -161503499#1 -161503499#0 -998139966#1 345687070#0"/>
    </vehicle>
    <vehicle id="72" depart="216.00">
        <route edges="-725894815#2 -725894815#1 -725894815#0 -725894814#1 779834469#0 779834469#1 688038729#5 688038729#6 688038729#7 688038729#8 688038729#9 688038729#10 688038729#11 688038729#12 688038729#13 240617302#2 345687879 779834481 779834478 779834479 779834480 240453454#1 -240747960#1 -240453457"/>
    </vehicle>
    <vehicle id="73" depart="219.00">
        <route edges="231791565#5 -231791565#5 -231791565#4 231791591#0 231791591#1 231791591#2 -231793622#1 -231793622#0 -231793623#2 -231793623#1 -231793623#0 -70203362#14 -70203362#13 -70203362#12 -70203362#11 268005507#0"/>
    </vehicle>
    <vehicle id="74" depart="222.00">
        <route edges="-240079273 279360279#0 279360279#1 279360279#2 779834469#7 642235997#1 -231793627#4 -231793627#3 -231793627#2 -231793627#1 -231793627#0 -236669235#5 -236669235#4 -236669235#3 -236669235#2 -236669235#1 -236669235#0 236669232#0 236669232#1 236669232#2 236669232#3 236669232#4 -270087479#2 -270087479#1 -270087479#0"/>
    </vehicle>
    <vehicle id="75" depart="225.00">
        <route edges="99297428#4 99297428#5 99297428#6 231793625#0 231793625#1 236669235#0 236669235#1 236669235#2 236669235#3 236669235#4 236669235#5 231793627#0 231793627#1 231793627#2 231793627#3 231793627#4 -642235997#1 -642235997#0 779834472 779834476 779834474 99478595#0 99478595#1 -236668161#4 236668161#4"/>
    </vehicle>
    <vehicle id="76" depart="228.00">
        <route edges="-850367640#5 -850367640#4 -850367640#3 -850367640#2 -850367640#1 -850367640#0 779834469#1 -688038729#4 725894816 -725894814#1 775986570#2 779834467 779834473 779834475 642235997#0 642235997#1 -231793627#4 -231793627#3 -231793627#2 -231793627#1 -231793627#0 231793623#0 231793623#1 231793623#2 231793622#0 -231791581#2 -231791581#1 231791565#0 231791565#1"/>
    </vehicle>
    <vehicle id="77" depart="231.00">
        <route edges="-231793626#6 231793626#6 161503517#0 161503517#1 231793625#0 231793625#1 236669232#0 236669232#1 236669232#2 236669232#3 236669232#4 236669232#5 -267612556#14"/>
    </vehicle>
    <vehicle id="78" depart="234.00">
        <route edges="-278455401 270081577#3 270081577#4 270081577#5 70203362#12 70203362#13 70203362#14 231793623#0 231793623#1 231793623#2 -231793626#6 -231793626#5 -231793626#4 -231793626#3 231793626#3"/>
    </vehicle>
    <vehicle id="79" depart="237.00">
        <route edges="-267612556#4 -267612556#3 -267612556#2 -267612556#1 -267612556#0"/>
    </vehicle>
    <vehicle id="80" depart="240.00">
        <route edges="-231791580#7 -231791580#6 -231791580#5 -231791596#1 161503546 231793626#3 231793626#4 231793626#5 231793626#6 161503517#0 161503517#1 231793625#0 231793625#1 236669232#0 236669232#1 236669232#2 236669232#3 236669232#4 236669232#5 231808165#0 231808165#1 -231808154#3 -231808154#2 -231808129#4 231808129#4"/>
    </vehicle>
    <vehicle id="81" depart="243.00">
        <route edges="-267612556#2 267612556#2 161503499#2 161503499#3 161503499#4 161503499#5 161503499#6 231793617#0 231793617#1 231793617#2 231793617#3 161503553 799269881 799269880 799269878#0 799269878#1 799269878#2 231521461#8 612822785#1"/>
    </vehicle>
    <vehicle id="82" depart="246.00">
        <route edges="279360280#0 279360280#1 279360278#0 279360278#1 279360279#0 279360279#1 279360279#2 779834469#7 642235997#1 -231793627#4 -231793627#3 -231793627#2 -231793627#1 -231793627#0 231793623#0 231793623#1 231793623#2 231793622#0 -231791581#2 -231791581#1 -231791581#0"/>
    </vehicle>
    <vehicle id="83" depart="249.00">
        <route edges="-268005505#0 231793627#2 231793627#3 231793627#4 -642235997#1 725894817#0 725894817#1 279360273#0 279360273#1 279360273#2 279360273#3 -240079271#0 -279360268 240079274#0 -840813157 -840813158 -240079275 -240079268#13 -240079268#12 -240079268#11 240079268#11"/>
    </vehicle>
    <vehicle id="84" depart="252.00">
        <route edges="-240453454#1 -240453454#0 -99295936#0 -278571540 -278571535#0 -278571334 231521461#2 231521461#3 97049435#3 97049435#4 134626495 -161503553 -231793617#3 -231793617#2 -231793617#1 -231793617#0 -231793627#4 -231793627#3 -231793627#2 -231793627#1 -231793627#0 -236669235#5 -236669235#4 -236669235#3 -236669235#2 -236669235#1 -236669235#0 236669232#0 236669232#1 236669232#2 236669232#3 236669232#4 236669232#5 231808165#0 -231808125#1 231808102#2 -231808128#0 -231808103#2 -231808103#1"/>
    </vehicle>
    <vehicle id="85" depart="255.00">
        <route edges="725894814#1 -725894814#1 775986570#2 779834467 779834473 779834475 642235997#0 642235997#1 -231793627#4 -231793627#3 -231793627#2 -231793627#1 -231793627#0 231793623#0 231793623#1 231793623#2 231793622#0 231793622#1 231793622#2 231793622#3 231793622#4 231793622#5 231791612 231791614 231791613"/>
    </vehicle>
    <vehicle id="86" depart="258.00">
        <route edges="1072226222#1 1072226224#0 1072226224#1 1072226224#2 231820215#1 267612556#0 267612556#1 267612556#2 267612556#3 267612556#4 267612556#5 267612556#6 267612556#7 267612556#8 267612556#9 70203362#8 70203362#9 70203362#10 70203362#11 70203362#12 70203362#13 70203362#14 231793623#0 231793623#1 -231791562#6 -231791562#5 -231791562#4 -268906209 268906209"/>
    </vehicle>
    <vehicle id="87" depart="261.00">
        <route edges="270087464#1 270087464#2 270087462#1 -270087460#0 236669235#2 236669235#3 236669235#4 236669235#5 231793627#0 231793627#1 231793627#2 231793627#3 231793627#4 -642235997#1 725894817#0 725894817#1 279360273#0 279360273#1 279360273#2 279360273#3 -240079271#0 -279360268 240079274#0 -840813157 -840813158 -240079275 -240079268#13 -240079268#12 -240079268#11 -240079268#10 -240079268#9 -240079268#8 -240079268#7 -240079268#6 -240079268#5 -240079268#4 -240079268#3"/>
    </vehicle>
    <vehicle id="88" depart="264.00">
        <route edges="-231791597#0 -231791597#2 231791572 231791595#1 231791581#0 231791581#1 231791581#2 -231793622#0 -231793623#2 -231793623#1 -231793623#0 231793627#0 231793627#1 231793627#2 231793627#3 231793627#4 -642235997#1 725894817#0 725894817#1 725894817#2 725894817#3 240079266 -688038729#3 850367652#0 -850367652#0"/>
    </vehicle>
    <vehicle id="89" depart="267.00">
        <route edges="-725894815#2 725894815#2 236668173#1 236668173#2 236668173#3 231820215#0 231820215#1 -1103984862#2 -1103984862#1 1103984863"/>
    </vehicle>
    <vehicle id="90" depart="270.00">