<?xml version="1.0" encoding="UTF-8"?>

<net version="1.16" junctionCornerDetail="5" limitTurnSpeed="5.50"
    xmlns:xsi="http://www.w3.org/2001/XMLSchema-instance"
    xsi:noNamespaceSchemaLocation="http://sumo.dlr.de/xsd/net_file.xsd">

    <location netOffset="0.00,0.00" convBoundary="-1.72,73.48,54.28,73.84"
        origBoundary="10000000000.00,10000000000.00,-10000000000.00,-10000000000.00"
        projParameter="!" />

    <edge id=":J6_0" function="internal">
        <lane id=":J6_0_0" index="0" speed="13.89" length="0.31" shape="27.44,75.44 27.14,75.44" />
    </edge>
    <edge id=":J6_1" function="internal">
        <lane id=":J6_1_0" index="0" speed="13.89" length="0.23" shape="27.17,72.24 27.40,72.24" />
    </edge>


    <edge id="-E3" from="J6" to="J5" priority="-1">
        <lane id="-E3_0" index="0" speed="13.89" length="28.88" shape="27.14,75.44 -1.74,75.08" />
    </edge>
    <edge id="-E4" from="J6" to="J7" priority="-1">
        <lane id="-E4_0" index="0" speed="13.89" length="26.86" shape="27.40,72.24 54.26,71.88" />
    </edge>
    <edge id="E3" from="J5" to="J6" priority="-1">
        <lane id="E3_0" index="0" speed="13.89" length="28.88" shape="-1.70,71.88 27.17,72.24" />
    </edge>
    <edge id="E4" from="J7" to="J6" priority="-1">
        <lane id="E4_0" index="0" speed="13.89" length="26.86" shape="54.30,75.08 27.44,75.44" />
    </edge>



    <junction id="J6" type="priority" x="27.29" y="73.84" incLanes="E4_0 E3_0"
        intLanes=":J6_0_0 :J6_1_0"
              shape="27.46,77.04 27.38,70.64 27.19,70.64 27.12,77.04">
        <request index="0" response="00" foes="00" cont="0" />
        <request index="1" response="00" foes="00" cont="0" />
    </junction>

    <junction id="J5" type="dead_end" x="-1.72" y="73.48" incLanes="-E3_0" intLanes=""
        shape="-1.72,73.48 -1.76,76.68 -1.72,73.48" />

    <junction id="J7" type="dead_end" x="54.28" y="73.48" incLanes="-E4_0" intLanes=""
        shape="54.28,73.48 54.24,70.28 54.28,73.48" />

    <connection from="E3" to="-E4" fromLane="0" toLane="0" via=":J6_1_0" dir="s" state="M" />
    <connection from="E4" to="-E3" fromLane="0" toLane="0" via=":J6_0_0" dir="s" state="M" />

    <connection from=":J6_0" to="-E3" fromLane="0" toLane="0" dir="s" state="M" />
    <connection from=":J6_1" to="-E4" fromLane="0" toLane="0" dir="s" state="M" />

</net>