<?xml version="1.0" encoding="UTF-8"?>

<!-- generated on 2023-02-21 10:59:51 by Eclipse SUMO netconvert Version 1.16.0
<configuration xmlns:xsi="http://www.w3.org/2001/XMLSchema-instance"
xsi:noNamespaceSchemaLocation="http://sumo.dlr.de/xsd/netconvertConfiguration.xsd">

    <input>
        <type-files value="${SUMO_HOME}/data/typemap/osmNetconvert.typ.xml"/>
        <osm-files value="osm_bbox.osm.xml.gz"/>
    </input>

    <output>
        <output-file value="osm.net.xml.gz"/>
        <output.street-names value="true"/>
        <output.original-names value="true"/>
    </output>

    <projection>
        <proj.utm value="true"/>
    </projection>

    <processing>
        <geometry.remove value="true"/>
        <roundabouts.guess value="true"/>
    </processing>

    <tls_building>
        <tls.discard-simple value="true"/>
        <tls.join value="true"/>
        <tls.guess-signals value="true"/>
        <tls.default-type value="actuated"/>
    </tls_building>

    <ramp_guessing>
        <ramps.guess value="true"/>
    </ramp_guessing>

    <edge_removal>
        <keep-edges.by-vclass value="passenger"/>
    </edge_removal>

    <junctions>
        <junctions.join value="true"/>
        <junctions.corner-detail value="5"/>
    </junctions>

</configuration>
-->

<!-- 
    in the net.xml
    we find that we should pay our attendtion on these tags:

    <edge>
        <lane></lane>
    </edge>

    <junction >
        <request/>
    </junction>
    # need to pay some attation to <tlLogic> 

    <connection>
    </connection>

    we expect we can write some .py files which could spilt the net.xml file downloaded from the OSM
Web,
    and then we clean and replace the id and other similar data, 
    and add control parameters to synthesize a new net.xml file.

    However, if we modify the net.xml, the demand files ,such as rou.xml, which also has an unknown
impact on additional.xml
    we need to modify them,too.

    Lucky, we only need use the net.xml, as for others, we can generate  later.


 -->

<net version="1.16" junctionCornerDetail="5" limitTurnSpeed="5.50"
    xmlns:xsi="http://www.w3.org/2001/XMLSchema-instance"
    xsi:noNamespaceSchemaLocation="http://sumo.dlr.de/xsd/net_file.xsd">

    <location netOffset="-241678.04,-3377229.33" convBoundary="0.00,0.00,1465.01,1731.96"
        origBoundary="114.308337,30.499749,114.323617,30.515346"
        projParameter="+proj=utm +zone=50 +ellps=WGS84 +datum=WGS84 +units=m +no_defs" />

    <type id="highway.bridleway" priority="1" numLanes="1" speed="2.78" allow="pedestrian"
        oneway="1" width="2.00" />
    <type id="highway.bus_guideway" priority="1" numLanes="1" speed="27.78" allow="bus" oneway="1" />
    <type id="highway.cycleway" priority="1" numLanes="1" speed="5.56" allow="bicycle" oneway="0"
        width="1.00" />
    <type id="highway.footway" priority="1" numLanes="1" speed="2.78" allow="pedestrian" oneway="1"
        width="2.00" />
    <type id="highway.ford" priority="1" numLanes="1" speed="2.78" allow="army" oneway="0" />
    <type id="highway.living_street" priority="2" numLanes="1" speed="2.78"
        disallow="tram rail_urban rail rail_electric rail_fast ship" oneway="0" />
    <type id="highway.motorway" priority="14" numLanes="2" speed="39.44"
        allow="private emergency authority army vip passenger hov taxi bus coach delivery truck trailer motorcycle evehicle custom1 custom2"
        oneway="1" />
    <type id="highway.motorway_link" priority="9" numLanes="1" speed="22.22"
        allow="private emergency authority army vip passenger hov taxi bus coach delivery truck trailer motorcycle evehicle custom1 custom2"
        oneway="1" />
    <type id="highway.path" priority="1" numLanes="1" speed="5.56" allow="pedestrian bicycle"
        oneway="0" width="2.00" />
    <type id="highway.pedestrian" priority="1" numLanes="1" speed="2.78" allow="pedestrian"
        oneway="1" width="2.00" />
    <type id="highway.primary" priority="12" numLanes="2" speed="27.78"
        disallow="tram rail_urban rail rail_electric rail_fast ship" oneway="0" />
    <type id="highway.primary_link" priority="7" numLanes="1" speed="22.22"
        disallow="tram rail_urban rail rail_electric rail_fast ship" oneway="0" />
    <type id="highway.raceway" priority="15" numLanes="2" speed="83.33" allow="vip" oneway="0" />
    <type id="highway.residential" priority="3" numLanes="1" speed="13.89"
        disallow="tram rail_urban rail rail_electric rail_fast ship" oneway="0" />
    <type id="highway.secondary" priority="11" numLanes="1" speed="27.78"
        disallow="tram rail_urban rail rail_electric rail_fast ship" oneway="0" />
    <type id="highway.secondary_link" priority="6" numLanes="1" speed="22.22"
        disallow="tram rail_urban rail rail_electric rail_fast ship" oneway="0" />
    <type id="highway.service" priority="1" numLanes="1" speed="5.56"
        allow="pedestrian delivery bicycle" oneway="0" />
    <type id="highway.stairs" priority="1" numLanes="1" speed="1.39" allow="pedestrian" oneway="1"
        width="2.00" />
    <type id="highway.step" priority="1" numLanes="1" speed="1.39" allow="pedestrian" oneway="1"
        width="2.00" />
    <type id="highway.steps" priority="1" numLanes="1" speed="1.39" allow="pedestrian" oneway="1"
        width="2.00" />
    <type id="highway.tertiary" priority="10" numLanes="1" speed="22.22"
        disallow="tram rail_urban rail rail_electric rail_fast ship" oneway="0" />
    <type id="highway.tertiary_link" priority="5" numLanes="1" speed="22.22"
        disallow="tram rail_urban rail rail_electric rail_fast ship" oneway="0" />
    <type id="highway.track" priority="1" numLanes="1" speed="5.56"
        allow="pedestrian motorcycle moped bicycle" oneway="0" />
    <type id="highway.trunk" priority="13" numLanes="2" speed="27.78"
        disallow="pedestrian bicycle tram rail_urban rail rail_electric rail_fast ship" oneway="0" />
    <type id="highway.trunk_link" priority="8" numLanes="1" speed="22.22"
        disallow="pedestrian bicycle tram rail_urban rail rail_electric rail_fast ship" oneway="0" />
    <type id="highway.unclassified" priority="4" numLanes="1" speed="13.89"
        disallow="tram rail_urban rail rail_electric rail_fast ship" oneway="0" />
    <type id="highway.unsurfaced" priority="1" numLanes="1" speed="8.33"
        disallow="tram rail_urban rail rail_electric rail_fast ship" oneway="0" />
    <type id="railway.highspeed" priority="21" numLanes="1" speed="69.44" allow="rail_fast"
        oneway="1" />
    <type id="railway.light_rail" priority="19" numLanes="1" speed="27.78" allow="rail_urban"
        oneway="1" />
    <type id="railway.preserved" priority="16" numLanes="1" speed="27.78" allow="rail" oneway="1" />
    <type id="railway.rail" priority="20" numLanes="1" speed="44.44" allow="rail" oneway="1" />
    <type id="railway.subway" priority="18" numLanes="1" speed="27.78" allow="rail_urban" oneway="1" />
    <type id="railway.tram" priority="17" numLanes="1" speed="13.89" allow="tram" oneway="1" />

    <edge id=":1148784410_0" function="internal">
        <lane id=":1148784410_0_0" index="0"
            disallow="tram rail_urban rail rail_electric rail_fast ship" speed="3.65" length="4.67"
            shape="0.04,791.94 -1.18,791.17 -1.60,790.38 -1.22,789.57 -0.04,788.74" />
    </edge>
    <edge id=":1148784425_0" function="internal">
        <lane id=":1148784425_0_0" index="0"
            disallow="tram rail_urban rail rail_electric rail_fast ship" speed="3.65" length="4.67"
            shape="1109.83,341.91 1110.61,340.70 1111.40,340.28 1112.21,340.67 1113.03,341.86" />
    </edge>
    <edge id=":1479067753_0" function="internal">
        <lane id=":1479067753_0_0" index="0"
            disallow="tram rail_urban rail rail_electric rail_fast ship" speed="6.82" length="9.59"
            shape="591.80,1359.68 589.20,1360.16 587.33,1361.32 586.19,1363.17 585.79,1365.71" />
    </edge>
    <edge id=":1479067753_1" function="internal">
        <lane id=":1479067753_1_0" index="0"
            disallow="tram rail_urban rail rail_electric rail_fast ship" speed="27.78"
            length="14.78" shape="591.80,1359.68 577.03,1360.09" />
    </edge>
    <edge id=":1479067753_2" function="internal">
        <lane id=":1479067753_2_0" index="0"
            disallow="tram rail_urban rail rail_electric rail_fast ship" speed="7.87" length="14.49"
            shape="591.80,1359.68 587.81,1359.28 585.00,1357.69 583.38,1354.89 582.94,1350.90" />
    </edge>
    <edge id=":1479067753_3" function="internal">
        <lane id=":1479067753_3_0" index="0"
            disallow="tram rail_urban rail rail_electric rail_fast ship" speed="3.65" length="4.67"
            shape="591.80,1359.68 590.57,1358.94 590.14,1358.15 590.50,1357.34 591.67,1356.49" />
    </edge>
    <edge id=":1479067753_4" function="internal">
        <lane id=":1479067753_4_0" index="0"
            disallow="tram rail_urban rail rail_electric rail_fast ship" speed="6.35" length="9.04"
            shape="586.13,1351.01 586.41,1353.50 587.42,1355.24 589.17,1356.24 591.67,1356.49" />
    </edge>
    <edge id=":1479067753_5" function="internal">
        <lane id=":1479067753_5_0" index="0"
            disallow="tram rail_urban rail rail_electric rail_fast ship" speed="27.78"
            length="14.70" shape="586.13,1351.01 585.79,1365.71" />
    </edge>
    <edge id=":1479067753_6" function="internal">
        <lane id=":1479067753_6_0" index="0"
            disallow="tram rail_urban rail rail_electric rail_fast ship" speed="8.22" length="4.11"
            shape="586.13,1351.01 585.45,1354.94 585.39,1355.04" />
    </edge>
    <edge id=":1479067753_7" function="internal">
        <lane id=":1479067753_7_0" index="0"
            disallow="tram rail_urban rail rail_electric rail_fast ship" speed="3.65" length="1.44"
            shape="586.13,1351.01 585.30,1352.18" />
    </edge>
    <edge id=":1479067753_16" function="internal">
        <lane id=":1479067753_16_0" index="0"
            disallow="tram rail_urban rail rail_electric rail_fast ship" speed="8.22" length="10.41"
            shape="585.39,1355.04 583.71,1357.77 580.90,1359.48 577.03,1360.09" />
    </edge>
    <edge id=":1479067753_17" function="internal">
        <lane id=":1479067753_17_0" index="0"
            disallow="tram rail_urban rail rail_electric rail_fast ship" speed="3.65" length="3.23"
            shape="585.30,1352.18 584.48,1352.56 583.70,1352.13 582.94,1350.90" />
    </edge>
    <edge id=":1479067753_8" function="internal">
        <lane id=":1479067753_8_0" index="0"
            disallow="tram rail_urban rail rail_electric rail_fast ship" speed="6.77" length="9.53"
            shape="576.99,1356.89 579.52,1356.49 581.35,1355.36 582.49,1353.50 582.94,1350.90" />
    </edge>
    <edge id=":1479067753_9" function="internal">
        <lane id=":1479067753_9_0" index="0"
            disallow="tram rail_urban rail rail_electric rail_fast ship" speed="27.78"
            length="14.68" shape="576.99,1356.89 591.67,1356.49" />
    </edge>
    <edge id=":1479067753_10" function="internal">
        <lane id=":1479067753_10_0" index="0"
            disallow="tram rail_urban rail rail_electric rail_fast ship" speed="7.96" length="14.29"
            shape="576.99,1356.89 580.89,1357.40 583.65,1359.04 585.28,1361.81 585.79,1365.71" />
    </edge>
    <edge id=":1479067753_11" function="internal">
        <lane id=":1479067753_11_0" index="0"
            disallow="tram rail_urban rail rail_electric rail_fast ship" speed="3.65" length="4.67"
            shape="576.99,1356.89 578.20,1357.68 578.61,1358.47 578.22,1359.28 577.03,1360.09" />
    </edge>
    <edge id=":1479067753_12" function="internal">
        <lane id=":1479067753_12_0" index="0"
            disallow="tram rail_urban rail rail_electric rail_fast ship" speed="6.45" length="9.03"
            shape="582.59,1365.67 582.27,1363.20 581.24,1361.45 579.49,1360.41 577.03,1360.09" />
    </edge>
    <edge id=":1479067753_13" function="internal">
        <lane id=":1479067753_13_0" index="0"
            disallow="tram rail_urban rail rail_electric rail_fast ship" speed="27.78"
            length="14.77" shape="582.59,1365.67 582.94,1350.90" />
    </edge>
    <edge id=":1479067753_14" function="internal">
        <lane id=":1479067753_14_0" index="0"
            disallow="tram rail_urban rail rail_electric rail_fast ship" speed="8.26" length="4.16"
            shape="582.59,1365.67 583.20,1361.79 583.33,1361.59" />
    </edge>
    <edge id=":1479067753_15" function="internal">
        <lane id=":1479067753_15_0" index="0"
            disallow="tram rail_urban rail rail_electric rail_fast ship" speed="3.65" length="1.44"
            shape="582.59,1365.67 583.41,1364.48" />
    </edge>
    <edge id=":1479067753_18" function="internal">
        <lane id=":1479067753_18_0" index="0"
            disallow="tram rail_urban rail rail_electric rail_fast ship" speed="8.26" length="10.38"
            shape="583.33,1361.59 584.92,1358.97 587.74,1357.21 591.67,1356.49" />
    </edge>
    <edge id=":1479067753_19" function="internal">
        <lane id=":1479067753_19_0" index="0"
            disallow="tram rail_urban rail rail_electric rail_fast ship" speed="3.65" length="3.23"
            shape="583.41,1364.48 584.21,1364.09 585.01,1364.50 585.79,1365.71" />
    </edge>
    <edge id=":1734799520_0" function="internal">
        <lane id=":1734799520_0_0" index="0"
            disallow="tram rail_urban rail rail_electric rail_fast ship" speed="3.65" length="4.67"
            shape="571.08,1732.02 570.24,1733.19 569.42,1733.56 568.64,1733.13 567.88,1731.90" />
    </edge>
    <edge id=":1734799534_0" function="internal">
        <lane id=":1734799534_0_0" index="0"
            disallow="tram rail_urban rail rail_electric rail_fast ship" speed="3.65" length="4.67"
            shape="1230.19,1690.80 1229.79,1692.18 1229.15,1692.81 1228.26,1692.67 1227.14,1691.77" />
    </edge>
    <edge id=":1734799582_0" function="internal">
        <lane id=":1734799582_0_0" index="0"
            disallow="tram rail_urban rail rail_electric rail_fast ship" speed="3.65" length="4.67"
            shape="31.91,1370.30 30.69,1369.53 30.27,1368.74 30.66,1367.93 31.84,1367.11" />
    </edge>
    <edge id=":1734799743_0" function="internal">
        <lane id=":1734799743_0_0" index="0"
            disallow="tram rail_urban rail rail_electric rail_fast ship" speed="7.91" length="11.26"
            shape="1131.39,1363.36 1130.30,1360.40 1128.65,1358.28 1126.42,1356.99 1123.62,1356.53" />
    </edge>
    <edge id=":1734799743_1" function="internal">
        <lane id=":1734799743_1_0" index="0"
            disallow="tram rail_urban rail rail_electric rail_fast ship" speed="27.78"
            length="15.85"
            shape="1131.39,1363.36 1130.58,1359.56 1129.89,1355.58 1129.37,1351.57 1129.05,1347.70" />
    </edge>
    <edge id=":1734799743_2" function="internal">
        <lane id=":1734799743_2_0" index="0"
            disallow="tram rail_urban rail rail_electric rail_fast ship" speed="7.61" length="15.32"
            shape="1131.39,1363.36 1130.99,1359.00 1132.18,1355.94 1134.95,1354.17 1139.30,1353.70" />
    </edge>
    <edge id=":1734799743_3" function="internal">
        <lane id=":1734799743_3_0" index="0"
            disallow="tram rail_urban rail rail_electric rail_fast ship" speed="3.65" length="4.67"
            shape="1131.39,1363.36 1131.89,1362.01 1132.58,1361.43 1133.45,1361.64 1134.51,1362.62" />
    </edge>
    <edge id=":1734799743_4" function="internal">
        <lane id=":1734799743_4_0" index="0"
            disallow="tram rail_urban rail rail_electric rail_fast ship" speed="6.01" length="9.08"
            shape="1139.19,1356.90 1136.61,1357.18 1134.97,1358.22 1134.27,1360.04 1134.51,1362.62" />
    </edge>
    <edge id=":1734799743_5" function="internal">
        <lane id=":1734799743_5_0" index="0"
            disallow="tram rail_urban rail rail_electric rail_fast ship" speed="27.78"
            length="15.57" shape="1139.19,1356.90 1123.62,1356.53" />
    </edge>
    <edge id=":1734799743_6" function="internal">
        <lane id=":1734799743_6_0" index="0"
            disallow="tram rail_urban rail rail_electric rail_fast ship" speed="8.57" length="4.43"
            shape="1139.19,1356.90 1134.94,1356.20 1134.84,1356.14" />
    </edge>
    <edge id=":1734799743_7" function="internal">
        <lane id=":1734799743_7_0" index="0"
            disallow="tram rail_urban rail rail_electric rail_fast ship" speed="3.65" length="1.44"
            shape="1139.19,1356.90 1138.02,1356.06" />
    </edge>
    <edge id=":1734799743_16" function="internal">
        <lane id=":1734799743_16_0" index="0"
            disallow="tram rail_urban rail rail_electric rail_fast ship" speed="8.57" length="10.89"
            shape="1134.84,1356.14 1131.83,1354.43 1129.87,1351.60 1129.05,1347.70" />
    </edge>
    <edge id=":1734799743_17" function="internal">
        <lane id=":1734799743_17_0" index="0"
            disallow="tram rail_urban rail rail_electric rail_fast ship" speed="3.65" length="3.23"
            shape="1138.02,1356.06 1137.65,1355.24 1138.07,1354.46 1139.30,1353.70" />
    </edge>
    <edge id=":1734799743_8" function="internal">
        <lane id=":1734799743_8_0" index="0"
            disallow="tram rail_urban rail rail_electric rail_fast ship" speed="7.19" length="10.48"
            shape="1132.25,1347.52 1132.81,1350.14 1134.17,1352.04 1136.34,1353.23 1139.30,1353.70" />
    </edge>
    <edge id=":1734799743_9" function="internal">
        <lane id=":1734799743_9_0" index="0"
            disallow="tram rail_urban rail rail_electric rail_fast ship" speed="27.78"
            length="15.28"
            shape="1132.25,1347.52 1132.55,1351.30 1133.05,1355.12 1133.70,1358.91 1134.51,1362.62" />
    </edge>
    <edge id=":1734799743_10" function="internal">
        <lane id=":1734799743_10_0" index="0"
            disallow="tram rail_urban rail rail_electric rail_fast ship" speed="7.89" length="14.45"
            shape="1132.25,1347.52 1131.90,1351.50 1130.34,1354.33 1127.58,1356.01 1123.62,1356.53" />
    </edge>
    <edge id=":1734799743_11" function="internal">
        <lane id=":1734799743_11_0" index="0"
            disallow="tram rail_urban rail rail_electric rail_fast ship" speed="3.65" length="4.67"
            shape="1132.25,1347.52 1131.51,1348.77 1130.74,1349.21 1129.92,1348.85 1129.05,1347.70" />
    </edge>
    <edge id=":1734799743_12" function="internal">
        <lane id=":1734799743_12_0" index="0"
            disallow="tram rail_urban rail rail_electric rail_fast ship" speed="6.37" length="9.04"
            shape="1123.66,1353.33 1126.13,1353.01 1127.86,1351.96 1128.83,1350.19 1129.05,1347.70" />
    </edge>
    <edge id=":1734799743_13" function="internal">
        <lane id=":1734799743_13_0" index="0"
            disallow="tram rail_urban rail rail_electric rail_fast ship" speed="27.78"
            length="15.65" shape="1123.66,1353.33 1139.30,1353.70" />
    </edge>
    <edge id=":1734799743_14" function="internal">
        <lane id=":1734799743_14_0" index="0"
            disallow="tram rail_urban rail rail_electric rail_fast ship" speed="9.20" length="4.25"
            shape="1123.66,1353.33 1127.58,1353.95 1127.82,1354.08" />
    </edge>
    <edge id=":1734799743_15" function="internal">
        <lane id=":1734799743_15_0" index="0"
            disallow="tram rail_urban rail rail_electric rail_fast ship" speed="3.65" length="1.44"
            shape="1123.66,1353.33 1124.85,1354.15" />
    </edge>
    <edge id=":1734799743_18" function="internal">
        <lane id=":1734799743_18_0" index="0"
            disallow="tram rail_urban rail rail_electric rail_fast ship" speed="9.20" length="11.30"
            shape="1127.82,1354.08 1130.70,1355.70 1133.01,1358.59 1134.51,1362.62" />
    </edge>
    <edge id=":1734799743_19" function="internal">
        <lane id=":1734799743_19_0" index="0"
            disallow="tram rail_urban rail rail_electric rail_fast ship" speed="3.65" length="3.23"
            shape="1124.85,1354.15 1125.24,1354.95 1124.83,1355.75 1123.62,1356.53" />
    </edge>
    <edge id=":2401208955_0" function="internal">
        <lane id=":2401208955_0_0" index="0"
            disallow="tram rail_urban rail rail_electric rail_fast ship" speed="6.95" length="9.96"
            shape="611.87,779.00 609.12,779.44 607.13,780.60 605.89,782.47 605.41,785.06" />
    </edge>
    <edge id=":2401208955_1" function="internal">
        <lane id=":2401208955_1_0" index="0"
            disallow="tram rail_urban rail rail_electric rail_fast ship" speed="27.78"
            length="15.16" shape="611.87,779.00 596.71,779.41" />
        <lane id=":2401208955_1_1" index="1"
            disallow="tram rail_urban rail rail_electric rail_fast ship" speed="27.78"
            length="15.16" shape="611.78,775.80 596.62,776.21" />
    </edge>
    <edge id=":2401208955_3" function="internal">
        <lane id=":2401208955_3_0" index="0"
            disallow="tram rail_urban rail rail_electric rail_fast ship" speed="8.58" length="3.81"
            shape="611.78,775.80 608.02,775.19" />
    </edge>
    <edge id=":2401208955_4" function="internal">
        <lane id=":2401208955_4_0" index="0"
            disallow="tram rail_urban rail rail_electric rail_fast ship" speed="3.65" length="1.44"
            shape="611.78,775.80 610.56,775.03" />
    </edge>
    <edge id=":2401208955_18" function="internal">
        <lane id=":2401208955_18_0" index="0"
            disallow="tram rail_urban rail rail_electric rail_fast ship" speed="8.58" length="13.36"
            shape="608.02,775.19 607.75,775.14 604.93,772.92 603.30,769.13 602.88,763.77" />
    </edge>
    <edge id=":2401208955_19" function="internal">
        <lane id=":2401208955_19_0" index="0"
            disallow="tram rail_urban rail rail_electric rail_fast ship" speed="3.65" length="3.23"
            shape="610.56,775.03 610.14,774.24 610.51,773.43 611.69,772.60" />
    </edge>
    <edge id=":2401208955_5" function="internal">
        <lane id=":2401208955_5_0" index="0"
            disallow="tram rail_urban rail rail_electric rail_fast ship" speed="6.39" length="9.04"
            shape="606.08,763.87 606.36,766.35 607.38,768.10 609.13,769.11 611.60,769.40" />
    </edge>
    <edge id=":2401208955_6" function="internal">
        <lane id=":2401208955_6_0" index="0"
            disallow="tram rail_urban rail rail_electric rail_fast ship" speed="27.78"
            length="21.21" shape="606.08,763.87 605.41,785.06" />
    </edge>
    <edge id=":2401208955_7" function="internal">
        <lane id=":2401208955_7_0" index="0"
            disallow="tram rail_urban rail rail_electric rail_fast ship" speed="8.99" length="17.43"
            shape="606.08,763.87 605.36,769.17 603.54,773.00 600.63,775.35 596.62,776.21" />
    </edge>
    <edge id=":2401208955_8" function="internal">
        <lane id=":2401208955_8_0" index="0"
            disallow="tram rail_urban rail rail_electric rail_fast ship" speed="3.65" length="4.67"
            shape="606.08,763.87 605.24,765.04 604.43,765.42 603.64,765.00 602.88,763.77" />
    </edge>
    <edge id=":2401208955_9" function="internal">
        <lane id=":2401208955_9_0" index="0"
            disallow="tram rail_urban rail rail_electric rail_fast ship" speed="6.93" length="9.94"
            shape="596.45,769.81 599.20,769.37 601.19,768.22 602.41,766.35 602.88,763.77" />
    </edge>
    <edge id=":2401208955_10" function="internal">
        <lane id=":2401208955_10_0" index="0"
            disallow="tram rail_urban rail rail_electric rail_fast ship" speed="27.78"
            length="15.16" shape="596.45,769.81 611.60,769.40" />
        <lane id=":2401208955_10_1" index="1"
            disallow="tram rail_urban rail rail_electric rail_fast ship" speed="27.78"
            length="15.16" shape="596.53,773.01 611.69,772.60" />
    </edge>
    <edge id=":2401208955_12" function="internal">
        <lane id=":2401208955_12_0" index="0"
            disallow="tram rail_urban rail rail_electric rail_fast ship" speed="8.57" length="3.82"
            shape="596.53,773.01 600.30,773.63" />
    </edge>
    <edge id=":2401208955_13" function="internal">
        <lane id=":2401208955_13_0" index="0"
            disallow="tram rail_urban rail rail_electric rail_fast ship" speed="3.65" length="1.44"
            shape="596.53,773.01 597.76,773.78" />
    </edge>
    <edge id=":2401208955_20" function="internal">
        <lane id=":2401208955_20_0" index="0"
            disallow="tram rail_urban rail rail_electric rail_fast ship" speed="8.57" length="13.38"
            shape="600.30,773.63 600.58,773.67 603.40,775.90 605.01,779.70 605.41,785.06" />
    </edge>
    <edge id=":2401208955_21" function="internal">
        <lane id=":2401208955_21_0" index="0"
            disallow="tram rail_urban rail rail_electric rail_fast ship" speed="3.65" length="3.23"
            shape="597.76,773.78 598.18,774.57 597.80,775.38 596.62,776.21" />
    </edge>
    <edge id=":2401208955_14" function="internal">
        <lane id=":2401208955_14_0" index="0"
            disallow="tram rail_urban rail rail_electric rail_fast ship" speed="6.38" length="9.04"
            shape="602.21,784.95 601.94,782.47 600.93,780.72 599.19,779.70 596.71,779.41" />
    </edge>
    <edge id=":2401208955_15" function="internal">
        <lane id=":2401208955_15_0" index="0"
            disallow="tram rail_urban rail rail_electric rail_fast ship" speed="27.78"
            length="21.19" shape="602.21,784.95 602.88,763.77" />
    </edge>
    <edge id=":2401208955_16" function="internal">
        <lane id=":2401208955_16_0" index="0"
            disallow="tram rail_urban rail rail_electric rail_fast ship" speed="9.01" length="17.43"
            shape="602.21,784.95 602.96,779.64 604.79,775.81 607.70,773.46 611.69,772.60" />
    </edge>
    <edge id=":2401208955_17" function="internal">
        <lane id=":2401208955_17_0" index="0"
            disallow="tram rail_urban rail rail_electric rail_fast ship" speed="3.65" length="4.67"
            shape="602.21,784.95 603.05,783.78 603.87,783.41 604.65,783.84 605.41,785.06" />
    </edge>
    <edge id=":2401208974_0" function="internal">
        <lane id=":2401208974_0_0" index="0"
            disallow="tram rail_urban rail rail_electric rail_fast ship" speed="6.55" length="9.08"
            shape="956.81,1360.33 956.46,1357.85 955.42,1356.08 953.68,1355.00 951.23,1354.62" />
    </edge>
    <edge id=":2401208974_1" function="internal">
        <lane id=":2401208974_1_0" index="0"
            disallow="tram rail_urban rail rail_electric rail_fast ship" speed="7.98" length="14.23"
            shape="956.81,1360.33 957.37,1356.46 959.03,1353.72 961.80,1352.09 965.67,1351.58" />
    </edge>
    <edge id=":2401208974_2" function="internal">
        <lane id=":2401208974_2_0" index="0"
            disallow="tram rail_urban rail rail_electric rail_fast ship" speed="3.65" length="4.67"
            shape="956.81,1360.33 957.61,1359.13 958.41,1358.73 959.21,1359.13 960.01,1360.33" />
    </edge>
    <edge id=":2401208974_3" function="internal">
        <lane id=":2401208974_3_0" index="0"
            disallow="tram rail_urban rail rail_electric rail_fast ship" speed="6.49" length="9.03"
            shape="965.63,1354.78 963.18,1355.10 961.42,1356.13 960.36,1357.88 960.01,1360.33" />
    </edge>
    <edge id=":2401208974_4" function="internal">
        <lane id=":2401208974_4_0" index="0"
            disallow="tram rail_urban rail rail_electric rail_fast ship" speed="27.78"
            length="14.40" shape="965.63,1354.78 951.23,1354.62" />
    </edge>
    <edge id=":2401208974_5" function="internal">
        <lane id=":2401208974_5_0" index="0"
            disallow="tram rail_urban rail rail_electric rail_fast ship" speed="3.65" length="1.44"
            shape="965.63,1354.78 964.44,1353.96" />
    </edge>
    <edge id=":2401208974_9" function="internal">
        <lane id=":2401208974_9_0" index="0"
            disallow="tram rail_urban rail rail_electric rail_fast ship" speed="3.65" length="3.23"
            shape="964.44,1353.96 964.05,1353.16 964.46,1352.36 965.67,1351.58" />
    </edge>
    <edge id=":2401208974_6" function="internal">
        <lane id=":2401208974_6_0" index="0"
            disallow="tram rail_urban rail rail_electric rail_fast ship" speed="27.78"
            length="14.40" shape="951.27,1351.42 965.67,1351.58" />
    </edge>
    <edge id=":2401208974_7" function="internal">
        <lane id=":2401208974_7_0" index="0"
            disallow="tram rail_urban rail rail_electric rail_fast ship" speed="8.03" length="4.05"
            shape="951.27,1351.42 955.10,1352.01 955.25,1352.10" />
    </edge>
    <edge id=":2401208974_8" function="internal">
        <lane id=":2401208974_8_0" index="0"
            disallow="tram rail_urban rail rail_electric rail_fast ship" speed="3.65" length="1.44"
            shape="951.27,1351.42 952.46,1352.23" />
    </edge>
    <edge id=":2401208974_10" function="internal">
        <lane id=":2401208974_10_0" index="0"
            disallow="tram rail_urban rail rail_electric rail_fast ship" speed="8.03" length="10.16"
            shape="955.25,1352.10 957.83,1353.70 959.47,1356.47 960.01,1360.33" />
    </edge>
    <edge id=":2401208974_11" function="internal">
        <lane id=":2401208974_11_0" index="0"
            disallow="tram rail_urban rail rail_electric rail_fast ship" speed="3.65" length="3.23"
            shape="952.46,1352.23 952.85,1353.04 952.44,1353.83 951.23,1354.62" />
    </edge>
    <edge id=":2401209144_0" function="internal">
        <lane id=":2401209144_0_0" index="0"
            disallow="tram rail_urban rail rail_electric rail_fast ship" speed="3.65" length="4.67"